
  EPA STORM WATER MANAGEMENT MODEL - VERSION 5.2 (Build 5.2.4)
  PYSWMM TOOLKIT API - VERSION v1.0 (2024-04-17)
  ------------------------------------------------------------

  WARNING 04: minimum elevation drop used for Conduit C70_2
  WARNING 04: minimum elevation drop used for Conduit C85
  
  *************
  Element Count
  *************
  Number of rain gages ...... 1
  Number of subcatchments ... 39
  Number of nodes ........... 43
  Number of links ........... 42
  Number of pollutants ...... 0
  Number of land uses ....... 0
  
  
  ****************
  Raingage Summary
  ****************
                                                      Data       Recording
  Name                 Data Source                    Type       Interval 
  ------------------------------------------------------------------------
  rain_gage            rain_gage_timeseries           INTENSITY   15 min.
  
  
  ********************
  Subcatchment Summary
  ********************
  Name                       Area     Width   %Imperv    %Slope Rain Gage            Outlet              
  -----------------------------------------------------------------------------------------------------------
  Sub_1                      2.62    272.79     55.00    3.9580 rain_gage            J89                 
  Sub_10                     2.19    296.41     77.00    2.4860 rain_gage            J12                 
  Sub_11                     0.67    130.53     57.00    5.0240 rain_gage            J6                  
  Sub_12                     5.31    283.97     49.00    3.4940 rain_gage            J12                 
  Sub_13                     4.38    341.66     50.00    2.9930 rain_gage            J2                  
  Sub_14                    14.91    412.40     52.00    3.9710 rain_gage            J155                
  Sub_15                     3.68    325.75     59.00    4.8800 rain_gage            J96                 
  Sub_16                     2.81    372.64     48.00    3.5770 rain_gage            J32                 
  Sub_17                     4.94    458.98     41.00    4.7410 rain_gage            J30                 
  Sub_18                     1.52    250.00     79.00    2.3090 rain_gage            J8                  
  Sub_19                     2.15    372.00     78.00    3.4760 rain_gage            J121                
  Sub_2                      4.81    406.94     64.00    3.8880 rain_gage            J6                  
  Sub_20                    11.54    261.37     57.00    3.9380 rain_gage            J13                 
  Sub_21                     2.48    159.75     71.00    3.2870 rain_gage            J46                 
  Sub_22                     0.94    200.00     69.00    3.2890 rain_gage            J118                
  Sub_23                     2.95    250.00     63.00    3.6520 rain_gage            J103                
  Sub_24                     5.93    412.94     59.00    3.2030 rain_gage            J4                  
  Sub_25                     3.38    300.00     42.00    3.1260 rain_gage            J52                 
  Sub_26                     6.44    408.85     60.00    3.6440 rain_gage            J1                  
  Sub_27                     2.29    250.00     67.00    3.4680 rain_gage            J118                
  Sub_28                    10.61    229.01     71.00    3.1810 rain_gage            J43                 
  Sub_29                     4.46    300.00     76.00    3.1960 rain_gage            J7                  
  Sub_3                      2.79    466.00     72.00    3.7700 rain_gage            outfall             
  Sub_30                     2.64    390.64     74.00    3.0810 rain_gage            J57                 
  Sub_31                     2.90    292.33     72.00    2.7780 rain_gage            J156                
  Sub_32                     7.63    310.58     77.00    2.8180 rain_gage            J126                
  Sub_33                     3.19    461.41     83.00    3.0790 rain_gage            J63                 
  Sub_34                     2.29    250.00     65.00    2.6240 rain_gage            J5                  
  Sub_35                     2.76    217.64     70.00    2.8170 rain_gage            J3                  
  Sub_36                     1.43    235.88     50.00    2.2300 rain_gage            J70                 
  Sub_37                     1.87    251.70     78.00    3.2300 rain_gage            J71                 
  Sub_38                     4.37    354.85     73.00    3.2410 rain_gage            J23                 
  Sub_39                    11.94    244.72     56.00    2.9530 rain_gage            J147                
  Sub_4                      2.18    358.74     82.00    3.9740 rain_gage            J11                 
  Sub_5                      2.02    268.69     96.00    3.0480 rain_gage            J25                 
  Sub_6                      1.69    314.60     85.00    3.7140 rain_gage            J26                 
  Sub_7                      0.86    147.58     75.00    3.3650 rain_gage            J17                 
  Sub_8                      0.37     73.53     39.00    3.1440 rain_gage            J10                 
  Sub_9                      4.52    345.46     42.00    3.8900 rain_gage            J9                  
  
  
  ************
  Node Summary
  ************
                                           Invert      Max.    Ponded    External
  Name                 Type                 Elev.     Depth      Area    Inflow  
  -------------------------------------------------------------------------------
  J1                   JUNCTION             -6.11     11.75       0.0
  J10                  JUNCTION             -6.30     10.18       0.0
  J103                 JUNCTION             -6.19     10.56       0.0
  J104                 JUNCTION             -6.22     10.06       0.0
  J11                  JUNCTION              0.00      4.57       0.0
  J118                 JUNCTION             -6.18     12.12       0.0
  J12                  JUNCTION             -1.49      6.08       0.0
  J121                 JUNCTION             -1.01      9.50       0.0
  J126                 JUNCTION              2.71      5.20       0.0
  J13                  JUNCTION             -6.14     12.38       0.0
  J14                  JUNCTION             -6.30     10.18       0.0
  J147                 JUNCTION              2.00      4.84       0.0
  J151                 JUNCTION             -6.29     10.14       0.0
  J156                 JUNCTION              2.00      6.65       0.0
  J17                  JUNCTION             -2.21      6.73       0.0
  J18                  JUNCTION             -6.29     10.21       0.0
  J2                   JUNCTION             -0.37      7.68       0.0
  J23                  JUNCTION              1.98      4.73       0.0
  J25                  JUNCTION             -0.96      9.42       0.0
  J26                  JUNCTION             -1.44      7.94       0.0
  J27                  JUNCTION             -2.16      4.90       0.0
  J3                   JUNCTION             -0.57      9.12       0.0
  J30                  JUNCTION             -6.26      9.78       0.0
  J32                  JUNCTION             -6.23     10.58       0.0
  J4                   JUNCTION             -1.20      7.63       0.0
  J43                  JUNCTION             -1.70      8.65       0.0
  J44                  JUNCTION             -6.18     12.57       0.0
  J46                  JUNCTION             -6.16     11.43       0.0
  J5                   JUNCTION             -1.09      8.97       0.0
  J50                  JUNCTION             -6.15     11.76       0.0
  J52                  JUNCTION             -6.13     12.49       0.0
  J57                  JUNCTION             -1.59      8.82       0.0
  J6                   JUNCTION             -2.09      5.83       0.0
  J63                  JUNCTION              1.87      4.03       0.0
  J7                   JUNCTION             -0.42      6.53       0.0
  J70                  JUNCTION              2.00      7.06       0.0
  J71                  JUNCTION              1.80      7.50       0.0
  J8                   JUNCTION             -1.37      8.64       0.0
  J89                  JUNCTION             -1.00      6.26       0.0
  J9                   JUNCTION             -2.20      4.44       0.0
  J96                  JUNCTION             -1.97      5.15       0.0
  outfall              OUTFALL              -6.30     10.00       0.0
  J155                 STORAGE              -4.00      7.18       0.0
  
  
  ************
  Link Summary
  ************
  Name             From Node        To Node          Type            Length    %Slope Roughness
  ---------------------------------------------------------------------------------------------
  C103_1           J71              J3               CONDUIT          380.3    0.6233    0.0100
  C103_3           J3               J5               CONDUIT          261.0    0.2000    0.0100
  C103_4           J5               J57              CONDUIT          252.8    0.2000    0.0100
  C108             J70              J71              CONDUIT          121.0    0.1612    0.0100
  C110             J43              J44              CONDUIT          240.0    0.1667    0.0100
  C125_1           J57              J1               CONDUIT          257.8    0.9757    0.0100
  C125_2           J1               J52              CONDUIT          254.2    0.0100    0.0100
  C147             J7               J4               CONDUIT          393.0    0.2000    0.0100
  C147_2           J4               J57              CONDUIT          194.0    0.2000    0.0100
  C147_5           J63              J7               CONDUIT          273.4    0.8371    0.0100
  C15              J26              J17              CONDUIT          386.0    0.2000    0.0100
  C152             J23              J63              CONDUIT          346.2    0.0323    0.0100
  C152_1           J147             J23              CONDUIT           56.8    0.0317    0.0100
  C158             J17              J151             CONDUIT           40.0    0.2000    0.0100
  C159             J151             J10              CONDUIT           65.0    0.0100    0.0100
  C160             J18              J151             CONDUIT           65.0    0.0100    0.0100
  C167             J104             J32              CONDUIT           77.0    0.0100    0.0100
  C168             J155             J104             CONDUIT           15.0    6.6815    0.0100
  C174             J156             J71              CONDUIT          226.0    0.0863    0.0100
  C18_1            J52              J13              CONDUIT           24.9    0.0104    0.0100
  C18_2            J13              J50              CONDUIT          142.9    0.0104    0.0100
  C2               J50              J46              CONDUIT           71.3    0.0100    0.0100
  C26              J11              J14              CONDUIT          445.6    0.2917    0.0100
  C27              J2               J89              CONDUIT          314.9    0.2000    0.0100
  C38              J96              J32              CONDUIT          130.0    0.1938    0.0100
  C47              J25              J26              CONDUIT          241.0    0.2000    0.0100
  C57              J103             J104             CONDUIT          262.0    0.0100    0.0100
  C62              J32              J30              CONDUIT          305.9    0.0100    0.0100
  C64              J89              J12              CONDUIT          237.9    0.2039    0.0100
  C64_2            J12              J6               CONDUIT          303.5    0.2000    0.0100
  C68_1            J6               J27              CONDUIT           38.4    0.1808    0.0100
  C68_2            J27              J9               CONDUIT           19.2    0.1804    0.0100
  C69              J9               J10              CONDUIT           52.0    0.2000    0.0100
  C70_1            J10              J14              CONDUIT          279.9    0.0046    0.0100
  C70_2            J14              outfall          CONDUIT            5.5    0.0183    0.0100
  C78              J30              J18              CONDUIT          281.0    0.0100    0.0100
  C84              J118             J103             CONDUIT          163.0    0.0100    0.0100
  C85              J44              J118             CONDUIT            8.0    0.0125    0.0100
  C86              J46              J44              CONDUIT          189.0    0.0100    0.0100
  C90_1            J121             J8               CONDUIT          179.1    0.2000    0.0100
  C90_2            J8               J32              CONDUIT          429.7    0.2000    0.0100
  C96              J126             J63              CONDUIT          582.0    0.1436    0.0100
  
  
  *********************
  Cross Section Summary
  *********************
                                        Full     Full     Hyd.     Max.   No. of     Full
  Conduit          Shape               Depth     Area     Rad.    Width  Barrels     Flow
  ---------------------------------------------------------------------------------------
  C103_1           CIRCULAR             1.50     1.77     0.38     1.50        1    10.78
  C103_3           CIRCULAR             1.50     1.77     0.38     1.50        1     6.11
  C103_4           CIRCULAR             1.50     1.77     0.38     1.50        1     6.11
  C108             CIRCULAR             1.25     1.23     0.31     1.25        1     3.37
  C110             CIRCULAR             1.50     1.77     0.38     1.50        1     5.57
  C125_1           CIRCULAR             3.00     7.07     0.75     3.00        1    85.65
  C125_2           RECT_CLOSED          8.00    40.00     1.54     5.00        1    79.21
  C147             CIRCULAR             2.00     3.14     0.50     2.00        1    13.15
  C147_2           CIRCULAR             2.00     3.14     0.50     2.00        1    13.15
  C147_5           CIRCULAR             2.01     3.16     0.50     2.01        1    27.16
  C15              CIRCULAR             1.75     2.41     0.44     1.75        1     9.21
  C152             CIRCULAR             1.26     1.24     0.31     1.26        1     1.53
  C152_1           CIRCULAR             1.26     1.24     0.31     1.26        1     1.51
  C158             CIRCULAR             1.75     2.41     0.44     1.75        1     9.21
  C159             RECT_CLOSED          8.00    40.00     1.54     5.00        1    79.21
  C160             RECT_CLOSED          8.00    40.00     1.54     5.00        1    79.21
  C167             RECT_CLOSED          8.00    40.00     1.54     5.00        1    79.21
  C168             CIRCULAR             2.00     3.14     0.50     2.00        1    76.02
  C174             CIRCULAR             1.00     0.79     0.25     1.00        1     1.36
  C18_1            RECT_CLOSED          8.00    40.00     1.54     5.00        1    80.82
  C18_2            RECT_CLOSED          8.00    40.00     1.54     5.00        1    80.92
  C2               RECT_CLOSED          8.00    40.00     1.54     5.00        1    79.21
  C26              CIRCULAR             1.00     0.79     0.25     1.00        1     2.50
  C27              CIRCULAR             1.25     1.23     0.31     1.25        1     3.76
  C38              CIRCULAR             1.50     1.77     0.38     1.50        1     6.01
  C47              CIRCULAR             1.75     2.41     0.44     1.75        1     9.21
  C57              RECT_CLOSED          8.00    40.00     1.54     5.00        1    79.21
  C62              RECT_CLOSED          8.00    40.00     1.54     5.00        1    79.21
  C64              CIRCULAR             2.00     3.14     0.50     2.00        1    13.28
  C64_2            CIRCULAR             2.00     3.14     0.50     2.00        1    13.15
  C68_1            CIRCULAR             2.00     3.14     0.50     2.00        1    12.51
  C68_2            CIRCULAR             2.00     3.14     0.50     2.00        1    12.49
  C69              CIRCULAR             2.00     3.14     0.50     2.00        1    13.15
  C70_1            RECT_CLOSED         10.00    50.00     1.67     5.00        1    70.50
  C70_2            RECT_CLOSED         10.00    50.00     1.67     5.00        1   141.22
  C78              RECT_CLOSED          8.00    40.00     1.54     5.00        1    79.21
  C84              RECT_CLOSED          8.00    40.00     1.54     5.00        1    79.21
  C85              RECT_CLOSED          8.00    40.00     1.54     5.00        1    88.56
  C86              RECT_CLOSED          8.00    40.00     1.54     5.00        1    79.21
  C90_1            RECT_CLOSED          1.50     1.36     0.28     0.91        1     3.91
  C90_2            RECT_CLOSED          1.50     1.36     0.28     0.91        1     3.91
  C96              CIRCULAR             1.25     1.23     0.31     1.25        1     3.18
  
  
  ****************
  Analysis Options
  ****************
  Flow Units ............... CFS
  Process Models:
    Rainfall/Runoff ........ YES
    RDII ................... NO
    Snowmelt ............... NO
    Groundwater ............ NO
    Flow Routing ........... YES
    Ponding Allowed ........ NO
    Water Quality .......... NO
  Infiltration Method ...... GREEN_AMPT
  Flow Routing Method ...... DYNWAVE
  Surcharge Method ......... EXTRAN
  Starting Date ............ 05/31/2025 12:00:00
  Ending Date .............. 06/02/2025 12:00:00
  Antecedent Dry Days ...... 0.0
  Report Time Step ......... 00:05:00
  Wet Time Step ............ 00:05:00
  Dry Time Step ............ 00:05:00
  Routing Time Step ........ 5.00 sec
  Variable Time Step ....... YES
  Maximum Trials ........... 8
  Number of Threads ........ 2
  Head Tolerance ........... 0.005000 ft
  
  
  *********************
  Control Actions Taken
  *********************

  
  **************************        Volume         Depth
  Runoff Quantity Continuity     acre-feet        inches
  **************************     ---------       -------
  Total Precipitation ......        18.677         1.433
  Evaporation Loss .........         0.000         0.000
  Infiltration Loss ........        10.015         0.768
  Surface Runoff ...........         8.358         0.641
  Final Storage ............         0.306         0.023
  Continuity Error (%) .....        -0.011
  
  
  **************************        Volume        Volume
  Flow Routing Continuity        acre-feet      10^6 gal
  **************************     ---------     ---------
  Dry Weather Inflow .......         0.000         0.000
  Wet Weather Inflow .......         8.358         2.723
  Groundwater Inflow .......         0.000         0.000
  RDII Inflow ..............         0.000         0.000
  External Inflow ..........         6.747         2.199
  External Outflow .........        16.703         5.443
  Flooding Loss ............         0.018         0.006
  Evaporation Loss .........         0.000         0.000
  Exfiltration Loss ........         0.000         0.000
  Initial Stored Volume ....         1.952         0.636
  Final Stored Volume ......         5.068         1.651
  Continuity Error (%) .....       -27.741
  
  
  *************************
  Highest Continuity Errors
  *************************
  Node J26 (1.94%)
  Node J1 (1.61%)
  Node J8 (1.34%)
  Node J17 (1.22%)
  Node J52 (1.08%)
  
  
  ***************************
  Time-Step Critical Elements
  ***************************
  Link C70_2 (70.79%)
  Link C168 (19.51%)
  Link C85 (6.41%)
  Link C68_2 (2.46%)
  
  
  ********************************
  Highest Flow Instability Indexes
  ********************************
  Link C85 (11)
  Link C68_2 (8)
  Link C38 (8)
  Link C158 (7)
  Link C84 (7)
  
  
  *********************************
  Most Frequent Nonconverging Nodes
  *********************************
  Node outfall (3.24%)
  Node J2 (0.76%)
  Node J26 (0.57%)
  Node J5 (0.51%)
  Node J12 (0.43%)
  
  
  *************************
  Routing Time Step Summary
  *************************
  Minimum Time Step           :     0.50 sec
  Average Time Step           :     0.91 sec
  Maximum Time Step           :     5.00 sec
  % of Time in Steady State   :     0.00
  Average Iterations per Step :     2.42
  % of Steps Not Converging   :     3.24
  Time Step Frequencies       :
      5.000 -  3.155 sec      :     6.14 %
      3.155 -  1.991 sec      :     5.39 %
      1.991 -  1.256 sec      :     7.60 %
      1.256 -  0.792 sec      :     3.66 %
      0.792 -  0.500 sec      :    77.21 %
  
  
  ***************************
  Subcatchment Runoff Summary
  ***************************
  
  ------------------------------------------------------------------------------------------------------------------------------
                            Total      Total      Total      Total     Imperv       Perv      Total       Total     Peak  Runoff
                           Precip      Runon       Evap      Infil     Runoff     Runoff     Runoff      Runoff   Runoff   Coeff
  Subcatchment                 in         in         in         in         in         in         in    10^6 gal      CFS
  ------------------------------------------------------------------------------------------------------------------------------
  Sub_1                      1.43       0.00       0.00       0.87       0.77       0.00       0.54        0.04     0.30   0.375
  Sub_10                     1.43       0.00       0.00       0.42       1.07       0.23       0.98        0.06     0.52   0.685
  Sub_11                     1.43       0.00       0.00       0.85       0.80       0.00       0.56        0.01     0.08   0.389
  Sub_12                     1.43       0.00       0.00       0.94       0.68       0.00       0.48        0.07     0.54   0.334
  Sub_13                     1.43       0.00       0.00       0.93       0.70       0.00       0.49        0.06     0.45   0.341
  Sub_14                     1.43       0.00       0.00       0.91       0.73       0.00       0.51        0.21     1.60   0.354
  Sub_15                     1.43       0.00       0.00       0.83       0.82       0.00       0.58        0.06     0.45   0.402
  Sub_16                     1.43       0.00       0.00       0.83       0.67       0.12       0.59        0.04     0.45   0.409
  Sub_17                     1.43       0.00       0.00       1.02       0.57       0.00       0.40        0.05     0.42   0.280
  Sub_18                     1.43       0.00       0.00       0.58       1.10       0.05       0.82        0.03     0.29   0.575
  Sub_19                     1.43       0.00       0.00       0.60       1.09       0.04       0.80        0.05     0.41   0.562
  Sub_2                      1.43       0.00       0.00       0.62       0.89       0.17       0.79        0.10     0.98   0.553
  Sub_20                     1.43       0.00       0.00       0.85       0.80       0.00       0.56        0.17     1.35   0.389
  Sub_21                     1.43       0.00       0.00       0.71       0.99       0.00       0.69        0.05     0.36   0.484
  Sub_22                     1.43       0.00       0.00       0.54       0.96       0.19       0.87        0.02     0.21   0.605
  Sub_23                     1.43       0.00       0.00       0.79       0.88       0.00       0.62        0.05     0.38   0.430
  Sub_24                     1.43       0.00       0.00       0.83       0.82       0.00       0.58        0.09     0.72   0.402
  Sub_25                     1.43       0.00       0.00       0.92       0.59       0.09       0.50        0.05     0.44   0.348
  Sub_26                     1.43       0.00       0.00       0.82       0.84       0.00       0.59        0.10     0.80   0.409
  Sub_27                     1.43       0.00       0.00       0.75       0.93       0.00       0.65        0.04     0.32   0.457
  Sub_28                     1.43       0.00       0.00       0.71       0.99       0.00       0.69        0.20     1.55   0.484
  Sub_29                     1.43       0.00       0.00       0.64       1.06       0.03       0.77        0.09     0.74   0.537
  Sub_3                      1.43       0.00       0.00       0.50       1.00       0.21       0.91        0.07     0.64   0.635
  Sub_30                     1.43       0.00       0.00       0.66       1.03       0.02       0.74        0.05     0.43   0.519
  Sub_31                     1.43       0.00       0.00       0.70       1.00       0.00       0.71        0.06     0.43   0.493
  Sub_32                     1.43       0.00       0.00       0.62       1.07       0.03       0.78        0.16     1.28   0.545
  Sub_33                     1.43       0.00       0.00       0.50       1.16       0.09       0.90        0.08     0.69   0.626
  Sub_34                     1.43       0.00       0.00       0.77       0.91       0.00       0.63        0.04     0.31   0.443
  Sub_35                     1.43       0.00       0.00       0.72       0.98       0.00       0.68        0.05     0.40   0.477
  Sub_36                     1.43       0.00       0.00       0.93       0.70       0.00       0.49        0.02     0.15   0.341
  Sub_37                     1.43       0.00       0.00       0.60       1.09       0.04       0.80        0.04     0.35   0.561
  Sub_38                     1.43       0.00       0.00       0.68       1.02       0.01       0.72        0.09     0.66   0.504
  Sub_39                     1.43       0.00       0.00       0.86       0.78       0.00       0.55        0.18     1.37   0.382
  Sub_4                      1.43       0.00       0.00       0.52       1.14       0.08       0.88        0.05     0.46   0.615
  Sub_5                      1.43       0.00       0.00       0.16       1.34       0.30       1.24        0.07     0.56   0.865
  Sub_6                      1.43       0.00       0.00       0.46       1.19       0.11       0.94        0.04     0.38   0.658
  Sub_7                      1.43       0.00       0.00       0.65       1.05       0.02       0.76        0.02     0.14   0.529
  Sub_8                      1.43       0.00       0.00       1.04       0.54       0.00       0.38        0.00     0.03   0.266
  Sub_9                      1.43       0.00       0.00       0.92       0.59       0.09       0.50        0.06     0.58   0.348
  
  
  ******************
  Node Depth Summary
  ******************
  
  ---------------------------------------------------------------------------------
                                 Average  Maximum  Maximum  Time of Max    Reported
                                   Depth    Depth      HGL   Occurrence   Max Depth
  Node                 Type         Feet     Feet     Feet  days hr:min        Feet
  ---------------------------------------------------------------------------------
  J1                   JUNCTION     6.60    11.75     5.64     1  05:57        7.50
  J10                  JUNCTION     6.80     8.10     1.80     1  05:59        7.70
  J103                 JUNCTION     6.69    10.56     4.37     1  05:57        7.52
  J104                 JUNCTION     6.71     8.26     2.04     1  05:58        7.53
  J11                  JUNCTION     0.63     3.60     3.60     1  06:18        1.24
  J118                 JUNCTION     6.67    12.12     5.94     1  17:57        7.57
  J12                  JUNCTION     1.99     6.08     4.59     1  04:58        2.84
  J121                 JUNCTION     1.51     3.22     2.21     0  04:01        2.70
  J126                 JUNCTION     0.12     0.56     3.27     0  18:46        0.56
  J13                  JUNCTION     6.63    12.38     6.25     1  05:57        7.58
  J14                  JUNCTION     6.80     7.51     1.21     1  05:59        7.50
  J147                 JUNCTION     0.21     0.95     2.95     0  18:15        0.95
  J151                 JUNCTION     6.79     8.11     1.81     1  05:59        7.72
  J156                 JUNCTION     0.08     0.40     2.40     0  18:05        0.40
  J17                  JUNCTION     2.71     6.73     4.52     0  00:07        3.64
  J18                  JUNCTION     6.78     7.95     1.67     1  05:59        7.72
  J2                   JUNCTION     0.92     7.68     7.31     0  07:23        2.85
  J23                  JUNCTION     0.21     0.95     2.93     0  18:15        0.95
  J25                  JUNCTION     1.46     9.42     8.46     1  05:59        2.39
  J26                  JUNCTION     1.94     7.94     6.50     0  07:54        6.53
  J27                  JUNCTION     2.66     4.90     2.74     0  00:07        3.55
  J3                   JUNCTION     1.10     9.12     8.56     0  00:10        5.50
  J30                  JUNCTION     6.75     7.92     1.66     1  05:59        7.65
  J32                  JUNCTION     6.72     8.29     2.06     1  05:57        7.55
  J4                   JUNCTION     1.72     7.63     6.42     0  05:41        2.67
  J43                  JUNCTION     2.20     8.65     6.95     0  00:06        3.20
  J44                  JUNCTION     6.67    10.65     4.47     1  05:57        7.67
  J46                  JUNCTION     6.65    11.43     5.27     0  00:05        7.70
  J5                   JUNCTION     1.60     8.97     7.88     0  00:09        2.76
  J50                  JUNCTION     6.64    11.76     5.61     1  05:57        7.65
  J52                  JUNCTION     6.62    12.37     6.23     1  05:57        7.59
  J57                  JUNCTION     2.10     8.82     7.22     1  05:57        3.03
  J6                   JUNCTION     2.59     5.83     3.74     0  00:07        3.48
  J63                  JUNCTION     0.11     0.52     2.39     0  18:30        0.52
  J7                   JUNCTION     0.99     6.53     6.11     0  05:47        2.01
  J70                  JUNCTION     0.04     0.18     2.18     0  18:15        0.18
  J71                  JUNCTION     0.06     0.30     2.10     0  18:30        0.30
  J8                   JUNCTION     1.87     8.64     7.27     0  00:09        2.77
  J89                  JUNCTION     1.50     6.26     5.26     1  05:59        2.39
  J9                   JUNCTION     2.69     4.44     2.24     0  00:02        3.59
  J96                  JUNCTION     2.47     5.15     3.18     0  00:06        3.29
  outfall              OUTFALL      6.80     7.50     1.20     1  18:00        7.50
  J155                 STORAGE      4.23     5.22     1.22     1  05:59        5.21
  
  
  *******************
  Node Inflow Summary
  *******************
  
  -------------------------------------------------------------------------------------------------
                                  Maximum  Maximum                  Lateral       Total        Flow
                                  Lateral    Total  Time of Max      Inflow      Inflow     Balance
                                   Inflow   Inflow   Occurrence      Volume      Volume       Error
  Node                 Type           CFS      CFS  days hr:min    10^6 gal    10^6 gal     Percent
  -------------------------------------------------------------------------------------------------
  J1                   JUNCTION      0.80   167.92     0  00:04       0.103        2.12       1.640
  J10                  JUNCTION      0.03   234.98     0  00:01     0.00381        8.99       0.152
  J103                 JUNCTION      0.38   185.40     0  00:02      0.0492        4.15       1.060
  J104                 JUNCTION      0.00   235.13     0  00:03           0        8.32       0.418
  J11                  JUNCTION      0.46     0.46     0  18:15       0.052      0.0564       0.028
  J118                 JUNCTION      0.52   626.32     1  17:57      0.0629        3.96      -0.396
  J12                  JUNCTION      1.06     7.38     0  00:08       0.127       0.343       0.648
  J121                 JUNCTION      0.41     1.68     0  00:08      0.0471      0.0576       0.254
  J126                 JUNCTION      1.28     1.28     0  18:45       0.162       0.162      -0.001
  J13                  JUNCTION      1.35   214.21     0  00:04       0.174        3.08       0.535
  J14                  JUNCTION      0.00   279.51     0  00:01           0         9.1      -0.069
  J147                 JUNCTION      1.37     1.37     0  18:15       0.177       0.177      -0.000
  J151                 JUNCTION      0.00   245.85     0  00:01           0        8.41       0.161
  J156                 JUNCTION      0.43     0.43     0  18:15      0.0557      0.0557      -0.001
  J17                  JUNCTION      0.14    15.52     0  00:07      0.0177       0.244       1.236
  J18                  JUNCTION      0.00   244.12     0  00:01           0         8.1       0.441
  J2                   JUNCTION      0.45     1.22     1  05:59       0.058      0.0752       1.196
  J23                  JUNCTION      0.66     2.03     0  18:15      0.0855       0.263       0.000
  J25                  JUNCTION      0.56     2.01     0  00:09      0.0679      0.0943       0.058
  J26                  JUNCTION      0.38     5.99     0  00:08      0.0432       0.185       1.976
  J27                  JUNCTION      0.00    17.82     0  00:07           0       0.511      -0.359
  J3                   JUNCTION      0.40     3.94     0  00:09      0.0513       0.226      -0.047
  J30                  JUNCTION      0.42   212.19     0  00:01      0.0537        7.92       0.763
  J32                  JUNCTION      0.45   214.23     0  00:02      0.0447        7.74       0.542
  J4                   JUNCTION      0.72    10.54     0  00:06      0.0928        1.03       0.255
  J43                  JUNCTION      1.55     7.10     0  00:06         0.2       0.212       0.324
  J44                  JUNCTION      0.00   554.32     1  05:57           0        3.78       0.813
  J46                  JUNCTION      0.36   260.87     0  00:05      0.0466        3.43       0.747
  J5                   JUNCTION      0.31     5.48     0  00:06      0.0394        0.35       0.273
  J50                  JUNCTION      0.00   216.59     0  00:04           0        3.26       0.633
  J52                  JUNCTION      0.44   250.51     0  00:04      0.0458        2.58       1.096
  J57                  JUNCTION      0.43    22.46     0  00:05      0.0532         1.6       0.216
  J6                   JUNCTION      1.05    16.73     0  00:07       0.114       0.495       0.389
  J63                  JUNCTION      0.69     3.94     0  18:30      0.0778       0.503       0.004
  J7                   JUNCTION      0.74     5.13     0  00:08      0.0931        0.74       0.027
  J70                  JUNCTION      0.15     0.15     0  18:15       0.019       0.019      -0.005
  J71                  JUNCTION      0.35     0.92     0  18:30      0.0408       0.116       0.032
  J8                   JUNCTION      0.29     3.57     0  00:08      0.0339       0.121       1.357
  J89                  JUNCTION      0.30     2.57     0  00:09      0.0382       0.162      -0.190
  J9                   JUNCTION      0.58    17.89     0  00:07      0.0611       0.576      -0.263
  J96                  JUNCTION      0.45     7.57     0  00:06      0.0576      0.0703       0.982
  outfall              OUTFALL       0.64   367.01     0  00:00       0.069        7.64       0.000
  J155                 STORAGE       1.60    32.51     0  05:30       0.206         3.5      -0.005
  
  
  **********************
  Node Surcharge Summary
  **********************
  
  Surcharging occurs when water rises above the top of the highest conduit.
  ---------------------------------------------------------------------
                                               Max. Height   Min. Depth
                                   Hours       Above Crown    Below Rim
  Node                 Type      Surcharged           Feet         Feet
  ---------------------------------------------------------------------
  J1                   JUNCTION        0.01          3.746        0.000
  J103                 JUNCTION        0.01          2.563        0.000
  J104                 JUNCTION        0.01          0.261        1.801
  J11                  JUNCTION        9.95          2.603        0.963
  J118                 JUNCTION        0.01          4.118        0.000
  J12                  JUNCTION       19.05          4.079        0.000
  J121                 JUNCTION       19.56          1.717        6.279
  J13                  JUNCTION        0.01          4.385        0.000
  J151                 JUNCTION        0.01          0.108        2.032
  J17                  JUNCTION       35.11          4.983        0.000
  J2                   JUNCTION       12.29          6.434        0.000
  J25                  JUNCTION       14.06          7.668        0.000
  J26                  JUNCTION       22.23          6.190        0.000
  J27                  JUNCTION       29.64          2.903        0.000
  J3                   JUNCTION       10.96          7.621        0.000
  J32                  JUNCTION        0.01          0.290        2.294
  J4                   JUNCTION       13.87          5.627        0.000
  J43                  JUNCTION       30.15          7.150        0.000
  J44                  JUNCTION        0.01          2.647        1.926
  J46                  JUNCTION        0.01          3.432        0.000
  J5                   JUNCTION       20.75          7.466        0.000
  J50                  JUNCTION        0.01          3.757        0.000
  J52                  JUNCTION        0.01          4.367        0.127
  J57                  JUNCTION        0.08          5.816        0.000
  J6                   JUNCTION       28.51          3.834        0.000
  J7                   JUNCTION        0.06          4.525        0.000
  J8                   JUNCTION       25.04          7.137        0.000
  J89                  JUNCTION        9.46          4.261        0.000
  J9                   JUNCTION       30.14          2.440        0.000
  J96                  JUNCTION       35.38          3.653        0.000
  
  
  *********************
  Node Flooding Summary
  *********************
  
  Flooding refers to all water that overflows a node, whether it ponds or not.
  --------------------------------------------------------------------------
                                                             Total   Maximum
                                 Maximum   Time of Max       Flood    Ponded
                        Hours       Rate    Occurrence      Volume     Depth
  Node                 Flooded       CFS   days hr:min    10^6 gal      Feet
  --------------------------------------------------------------------------
  J1                      0.01     52.41      1  05:57       0.001     0.000
  J103                    0.01    105.55      1  05:57       0.001     0.000
  J118                    0.01    364.15      1  17:57       0.001     0.000
  J12                     0.01      0.82      1  16:56       0.000     0.000
  J13                     0.01     48.96      1  05:57       0.000     0.000
  J17                     0.01     14.18      0  00:07       0.000     0.000
  J2                      0.01      1.04      1  05:59       0.000     0.000
  J25                     0.01      0.65      1  06:00       0.000     0.000
  J26                     0.01      1.04      1  04:08       0.000     0.000
  J27                     0.01      4.67      0  00:07       0.000     0.000
  J3                      0.01      1.90      1  06:03       0.000     0.000
  J4                      0.01      2.32      1  06:03       0.000     0.000
  J43                     0.01      6.50      0  00:06       0.000     0.000
  J46                     0.01     63.88      0  00:05       0.000     0.000
  J5                      0.01      0.61      0  06:43       0.000     0.000
  J50                     0.01     55.72      1  05:57       0.001     0.000
  J57                     0.01     15.59      1  06:03       0.000     0.000
  J6                      0.01     14.66      0  00:07       0.000     0.000
  J7                      0.01      3.75      1  05:58       0.000     0.000
  J8                      0.01      1.41      0  00:09       0.000     0.000
  J89                     0.01      2.21      1  05:59       0.000     0.000
  J9                      0.01      6.46      0  00:02       0.000     0.000
  J96                     0.01      7.44      0  00:06       0.000     0.000
  
  
  **********************
  Storage Volume Summary
  **********************
  
  ------------------------------------------------------------------------------------------------
                         Average    Avg   Evap  Exfil     Maximum    Max    Time of Max    Maximum
                          Volume   Pcnt   Pcnt   Pcnt      Volume   Pcnt     Occurrence    Outflow
  Storage Unit          1000 ft³   Full   Loss   Loss    1000 ft³   Full    days hr:min        CFS
  ------------------------------------------------------------------------------------------------
  J155                   165.398   52.5    0.0    0.0     211.362   67.1       1  05:59      27.76
  
  
  ***********************
  Outfall Loading Summary
  ***********************
  
  -----------------------------------------------------------
                         Flow       Avg       Max       Total
                         Freq      Flow      Flow      Volume
  Outfall Node           Pcnt       CFS       CFS    10^6 gal
  -----------------------------------------------------------
  outfall               79.50     12.44    367.01       7.644
  -----------------------------------------------------------
  System                79.50     12.44    367.01       7.644
  
  
  ********************
  Link Flow Summary
  ********************
  
  -----------------------------------------------------------------------------
                                 Maximum  Time of Max   Maximum    Max/    Max/
                                  |Flow|   Occurrence   |Veloc|    Full    Full
  Link                 Type          CFS  days hr:min    ft/sec    Flow   Depth
  -----------------------------------------------------------------------------
  C103_1               CONDUIT      0.92     0  18:30      1.30    0.08    0.60
  C103_3               CONDUIT      3.94     0  00:09      3.15    0.65    1.00
  C103_4               CONDUIT      5.70     0  00:12      4.86    0.93    1.00
  C108                 CONDUIT      0.15     0  18:15      0.93    0.04    0.19
  C110                 CONDUIT      7.10     0  00:06      4.60    1.27    1.00
  C125_1               CONDUIT     29.02     0  00:11      5.48    0.34    1.00
  C125_2               CONDUIT    167.92     0  00:04      8.00    2.12    1.00
  C147                 CONDUIT      6.23     0  18:06      3.32    0.47    1.00
  C147_2               CONDUIT     10.87     0  00:12      6.50    0.83    1.00
  C147_5               CONDUIT      3.94     0  18:30      2.92    0.14    0.63
  C15                  CONDUIT      5.99     0  00:08      3.16    0.65    1.00
  C152                 CONDUIT      2.03     0  18:15      2.71    1.33    0.58
  C152_1               CONDUIT      1.37     0  18:15      1.37    0.91    0.75
  C158                 CONDUIT     15.01     0  00:07     12.73    1.63    1.00
  C159                 CONDUIT    245.85     0  00:01     11.41    3.10    1.00
  C160                 CONDUIT    244.12     0  00:01     14.17    3.08    1.00
  C167                 CONDUIT    235.13     0  00:03     11.33    2.97    0.99
  C168                 CONDUIT     32.51     0  05:30     13.26    0.43    0.81
  C174                 CONDUIT      0.43     0  18:08      1.80    0.32    0.35
  C18_1                CONDUIT    250.51     0  00:04     18.66    3.10    1.00
  C18_2                CONDUIT    214.21     0  00:04     14.14    2.65    1.00
  C2                   CONDUIT    216.59     0  00:04     13.47    2.73    1.00
  C26                  CONDUIT      0.46     0  18:15      0.59    0.18    1.00
  C27                  CONDUIT      1.22     1  05:59      0.99    0.32    1.00
  C38                  CONDUIT      7.57     0  00:06      4.31    1.26    1.00
  C47                  CONDUIT      2.01     0  00:09      1.82    0.22    1.00
  C57                  CONDUIT    185.40     0  00:02      9.62    2.34    0.99
  C62                  CONDUIT    214.23     0  00:02      9.51    2.70    0.97
  C64                  CONDUIT      2.57     0  00:09      2.13    0.19    1.00
  C64_2                CONDUIT      7.38     0  00:08      3.05    0.56    1.00
  C68_1                CONDUIT     16.73     0  00:07     10.74    1.34    1.00
  C68_2                CONDUIT     17.82     0  00:07     11.12    1.43    1.00
  C69                  CONDUIT     17.89     0  00:07      5.96    1.36    1.00
  C70_1                CONDUIT    234.98     0  00:01      9.16    3.33    0.78
  C70_2                CONDUIT    367.01     0  00:00     12.65    2.60    0.75
  C78                  CONDUIT    212.19     0  00:01      9.66    2.68    0.97
  C84                  CONDUIT    203.01     0  00:03      9.39    2.56    1.00
  C85                  CONDUIT    612.67     1  17:57     16.80    6.92    1.00
  C86                  CONDUIT    200.40     0  00:03      9.01    2.53    1.00
  C90_1                CONDUIT      1.68     0  00:08      1.96    0.43    1.00
  C90_2                CONDUIT      3.57     0  00:08      3.31    0.91    1.00
  C96                  CONDUIT      1.28     0  18:46      2.53    0.40    0.43
  
  
  ***************************
  Flow Classification Summary
  ***************************
  
  -------------------------------------------------------------------------------------
                      Adjusted    ---------- Fraction of Time in Flow Class ---------- 
                       /Actual         Up    Down  Sub   Sup   Up    Down  Norm  Inlet 
  Conduit               Length    Dry  Dry   Dry   Crit  Crit  Crit  Crit  Ltd   Ctrl  
  -------------------------------------------------------------------------------------
  C103_1                  1.00   0.00  0.12  0.00  0.88  0.00  0.00  0.00  0.99  0.00
  C103_3                  1.00   0.00  0.00  0.00  1.00  0.00  0.00  0.00  0.25  0.00
  C103_4                  1.00   0.00  0.00  0.00  1.00  0.00  0.00  0.00  0.01  0.00
  C108                    1.00   0.12  0.16  0.00  0.72  0.00  0.00  0.00  0.62  0.00
  C110                    1.00   0.00  0.00  0.00  1.00  0.00  0.00  0.00  0.00  0.00
  C125_1                  1.00   0.00  0.00  0.00  1.00  0.00  0.00  0.00  0.00  0.00
  C125_2                  1.00   0.00  0.00  0.00  1.00  0.00  0.00  0.00  0.00  0.00
  C147                    1.00   0.00  0.00  0.00  1.00  0.00  0.00  0.00  0.33  0.00
  C147_2                  1.00   0.00  0.00  0.00  1.00  0.00  0.00  0.00  0.00  0.00
  C147_5                  1.00   0.00  0.20  0.00  0.77  0.03  0.00  0.00  0.87  0.00
  C15                     1.00   0.00  0.00  0.00  1.00  0.00  0.00  0.00  0.00  0.00
  C152                    1.00   0.20  0.05  0.00  0.75  0.00  0.00  0.00  0.00  0.00
  C152_1                  1.00   0.25  0.00  0.00  0.75  0.00  0.00  0.00  0.33  0.00
  C158                    1.00   0.00  0.00  0.00  1.00  0.00  0.00  0.00  0.00  0.00
  C159                    1.00   0.00  0.00  0.00  1.00  0.00  0.00  0.00  0.00  0.00
  C160                    1.00   0.00  0.00  0.00  1.00  0.00  0.00  0.00  0.00  0.00
  C167                    1.00   0.00  0.00  0.00  1.00  0.00  0.00  0.00  0.00  0.00
  C168                    1.00   0.00  0.05  0.00  0.69  0.09  0.16  0.00  0.49  0.00
  C174                    1.00   0.12  0.13  0.00  0.75  0.00  0.00  0.00  0.16  0.00
  C18_1                   1.00   0.00  0.00  0.00  1.00  0.00  0.00  0.00  0.00  0.00
  C18_2                   1.00   0.00  0.00  0.00  1.00  0.00  0.00  0.00  0.00  0.00
  C2                      1.00   0.00  0.00  0.00  1.00  0.00  0.00  0.00  0.00  0.00
  C26                     1.00   0.00  0.05  0.00  0.95  0.00  0.00  0.00  0.40  0.00
  C27                     1.00   0.00  0.00  0.00  1.00  0.00  0.00  0.00  0.32  0.00
  C38                     1.00   0.00  0.00  0.00  1.00  0.00  0.00  0.00  0.00  0.00
  C47                     1.00   0.00  0.00  0.00  1.00  0.00  0.00  0.00  0.00  0.00
  C57                     1.00   0.00  0.00  0.00  1.00  0.00  0.00  0.00  0.00  0.00
  C62                     1.00   0.00  0.00  0.00  1.00  0.00  0.00  0.00  0.00  0.00
  C64                     1.00   0.00  0.00  0.00  1.00  0.00  0.00  0.00  0.00  0.00
  C64_2                   1.00   0.00  0.00  0.00  1.00  0.00  0.00  0.00  0.00  0.00
  C68_1                   1.00   0.00  0.00  0.00  1.00  0.00  0.00  0.00  0.00  0.00
  C68_2                   1.00   0.00  0.00  0.00  1.00  0.00  0.00  0.00  0.00  0.00
  C69                     1.00   0.00  0.00  0.00  1.00  0.00  0.00  0.00  0.00  0.00
  C70_1                   1.00   0.00  0.00  0.00  1.00  0.00  0.00  0.00  0.00  0.00
  C70_2                   1.00   0.00  0.00  0.00  1.00  0.00  0.00  0.00  0.00  0.00
  C78                     1.00   0.00  0.00  0.00  1.00  0.00  0.00  0.00  0.00  0.00
  C84                     1.00   0.00  0.00  0.00  1.00  0.00  0.00  0.00  0.00  0.00
  C85                     1.00   0.00  0.00  0.00  1.00  0.00  0.00  0.00  0.00  0.00
  C86                     1.00   0.00  0.00  0.00  1.00  0.00  0.00  0.00  0.00  0.00
  C90_1                   1.00   0.00  0.00  0.00  1.00  0.00  0.00  0.00  0.00  0.00
  C90_2                   1.00   0.00  0.00  0.00  1.00  0.00  0.00  0.00  0.00  0.00
  C96                     1.00   0.20  0.05  0.00  0.75  0.00  0.00  0.00  0.10  0.00
  
  
  *************************
  Conduit Surcharge Summary
  *************************
  
  ----------------------------------------------------------------------------
                                                           Hours        Hours 
                         --------- Hours Full --------   Above Full   Capacity
  Conduit                Both Ends  Upstream  Dnstream   Normal Flow   Limited
  ----------------------------------------------------------------------------
  C103_1                      0.01      0.01      9.89      0.01         0.01
  C103_3                     10.96     10.96     20.74      0.01         0.03
  C103_4                     20.74     20.74     28.53      0.01         0.05
  C110                       30.15     30.15     38.30      0.01         0.01
  C125_1                      0.08      0.08     47.86      0.01         0.01
  C125_2                      0.01      0.01      0.01      0.01         0.01
  C147                        0.07      0.07     13.87      0.01         0.01
  C147_2                     13.87     13.87     20.84      0.01         0.03
  C147_5                      0.01      0.01      0.06      0.01         0.01
  C15                        22.23     22.23     35.11      0.01         0.03
  C152                        0.01      0.01      0.01      2.98         0.01
  C158                       35.11     35.11     36.89      0.02         0.04
  C159                        0.01      0.01      0.01      0.12         0.01
  C160                        0.01      0.01      0.01      0.12         0.01
  C167                        0.01      0.01      0.01      0.08         0.01
  C168                        0.01      0.01      9.58      0.01         0.01
  C18_1                       0.01      0.01      0.01      0.02         0.01
  C18_2                       0.01      0.01      0.01      0.03         0.01
  C2                          0.01      0.01      0.01      0.04         0.01
  C26                         9.94      9.94     34.00      0.01         0.01
  C27                        12.29     12.29     23.29      0.01         0.06
  C38                        35.38     35.38     42.02      0.01         0.01
  C47                        14.06     14.06     22.23      0.01         0.01
  C57                         0.01      0.01      0.01      0.07         0.01
  C62                         0.01      0.01      0.01      0.09         0.01
  C64                         9.46      9.46     19.04      0.01         0.02
  C64_2                      19.04     19.04     28.50      0.01         0.02
  C68_1                      28.49     28.50     29.59      0.01         0.04
  C68_2                      29.57     29.60     30.11      0.01         0.24
  C69                        30.11     30.11     32.00      0.01         0.04
  C70_1                       0.01      0.01      0.01      0.14         0.01
  C70_2                       0.01      0.01      0.01      0.08         0.01
  C78                         0.01      0.01      0.01      0.11         0.01
  C84                         0.01      0.01      0.01      0.07         0.01
  C85                         0.01      0.01      0.01      0.06         0.01
  C86                         0.01      0.01      0.01      0.05         0.01
  C90_1                      19.55     19.55     25.04      0.01         0.01
  C90_2                      25.04     25.04     42.32      0.01         0.01
  

  Analysis begun on:  Tue Jun 17 00:16:52 2025
  Analysis ended on:  Tue Jun 17 00:17:00 2025
  Total elapsed time: 00:00:08