
  EPA STORM WATER MANAGEMENT MODEL - VERSION 5.2 (Build 5.2.4)
  PYSWMM TOOLKIT API - VERSION v1.0 (2024-04-17)
  ------------------------------------------------------------

  WARNING 04: minimum elevation drop used for Conduit C70_2
  WARNING 04: minimum elevation drop used for Conduit C85
  
  *************
  Element Count
  *************
  Number of rain gages ...... 1
  Number of subcatchments ... 39
  Number of nodes ........... 43
  Number of links ........... 42
  Number of pollutants ...... 0
  Number of land uses ....... 0
  
  
  ****************
  Raingage Summary
  ****************
                                                      Data       Recording
  Name                 Data Source                    Type       Interval 
  ------------------------------------------------------------------------
  rain_gage            rain_gage_timeseries           INTENSITY   15 min.
  
  
  ********************
  Subcatchment Summary
  ********************
  Name                       Area     Width   %Imperv    %Slope Rain Gage            Outlet              
  -----------------------------------------------------------------------------------------------------------
  Sub_1                      2.62    272.79     55.00    3.9580 rain_gage            J89                 
  Sub_10                     2.19    296.41     77.00    2.4860 rain_gage            J12                 
  Sub_11                     0.67    130.53     57.00    5.0240 rain_gage            J6                  
  Sub_12                     5.31    283.97     49.00    3.4940 rain_gage            J12                 
  Sub_13                     4.38    341.66     50.00    2.9930 rain_gage            J2                  
  Sub_14                    14.91    412.40     52.00    3.9710 rain_gage            J155                
  Sub_15                     3.68    325.75     59.00    4.8800 rain_gage            J96                 
  Sub_16                     2.81    372.64     48.00    3.5770 rain_gage            J32                 
  Sub_17                     4.94    458.98     41.00    4.7410 rain_gage            J30                 
  Sub_18                     1.52    250.00     79.00    2.3090 rain_gage            J8                  
  Sub_19                     2.15    372.00     78.00    3.4760 rain_gage            J121                
  Sub_2                      4.81    406.94     64.00    3.8880 rain_gage            J6                  
  Sub_20                    11.54    261.37     57.00    3.9380 rain_gage            J13                 
  Sub_21                     2.48    159.75     71.00    3.2870 rain_gage            J46                 
  Sub_22                     0.94    200.00     69.00    3.2890 rain_gage            J118                
  Sub_23                     2.95    250.00     63.00    3.6520 rain_gage            J103                
  Sub_24                     5.93    412.94     59.00    3.2030 rain_gage            J4                  
  Sub_25                     3.38    300.00     42.00    3.1260 rain_gage            J52                 
  Sub_26                     6.44    408.85     60.00    3.6440 rain_gage            J1                  
  Sub_27                     2.29    250.00     67.00    3.4680 rain_gage            J118                
  Sub_28                    10.61    229.01     71.00    3.1810 rain_gage            J43                 
  Sub_29                     4.46    300.00     76.00    3.1960 rain_gage            J7                  
  Sub_3                      2.79    466.00     72.00    3.7700 rain_gage            outfall             
  Sub_30                     2.64    390.64     74.00    3.0810 rain_gage            J57                 
  Sub_31                     2.90    292.33     72.00    2.7780 rain_gage            J156                
  Sub_32                     7.63    310.58     77.00    2.8180 rain_gage            J126                
  Sub_33                     3.19    461.41     83.00    3.0790 rain_gage            J63                 
  Sub_34                     2.29    250.00     65.00    2.6240 rain_gage            J5                  
  Sub_35                     2.76    217.64     70.00    2.8170 rain_gage            J3                  
  Sub_36                     1.43    235.88     50.00    2.2300 rain_gage            J70                 
  Sub_37                     1.87    251.70     78.00    3.2300 rain_gage            J71                 
  Sub_38                     4.37    354.85     73.00    3.2410 rain_gage            J23                 
  Sub_39                    11.94    244.72     56.00    2.9530 rain_gage            J147                
  Sub_4                      2.18    358.74     82.00    3.9740 rain_gage            J11                 
  Sub_5                      2.02    268.69     96.00    3.0480 rain_gage            J25                 
  Sub_6                      1.69    314.60     85.00    3.7140 rain_gage            J26                 
  Sub_7                      0.86    147.58     75.00    3.3650 rain_gage            J17                 
  Sub_8                      0.37     73.53     39.00    3.1440 rain_gage            J10                 
  Sub_9                      4.52    345.46     42.00    3.8900 rain_gage            J9                  
  
  
  ************
  Node Summary
  ************
                                           Invert      Max.    Ponded    External
  Name                 Type                 Elev.     Depth      Area    Inflow  
  -------------------------------------------------------------------------------
  J1                   JUNCTION             -6.11     11.75       0.0
  J10                  JUNCTION             -6.30     10.18       0.0
  J103                 JUNCTION             -6.19     10.56       0.0
  J104                 JUNCTION             -6.22     10.06       0.0
  J11                  JUNCTION              0.00      4.57       0.0
  J118                 JUNCTION             -6.18     12.12       0.0
  J12                  JUNCTION             -1.49      6.08       0.0
  J121                 JUNCTION             -1.01      9.50       0.0
  J126                 JUNCTION              2.71      5.20       0.0
  J13                  JUNCTION             -6.14     12.38       0.0
  J14                  JUNCTION             -6.30     10.18       0.0
  J147                 JUNCTION              2.00      4.84       0.0
  J151                 JUNCTION             -6.29     10.14       0.0
  J156                 JUNCTION              2.00      6.65       0.0
  J17                  JUNCTION             -2.21      6.73       0.0
  J18                  JUNCTION             -6.29     10.21       0.0
  J2                   JUNCTION             -0.37      7.68       0.0
  J23                  JUNCTION              1.98      4.73       0.0
  J25                  JUNCTION             -0.96      9.42       0.0
  J26                  JUNCTION             -1.44      7.94       0.0
  J27                  JUNCTION             -2.16      4.90       0.0
  J3                   JUNCTION             -0.57      9.12       0.0
  J30                  JUNCTION             -6.26      9.78       0.0
  J32                  JUNCTION             -6.23     10.58       0.0
  J4                   JUNCTION             -1.20      7.63       0.0
  J43                  JUNCTION             -1.70      8.65       0.0
  J44                  JUNCTION             -6.18     12.57       0.0
  J46                  JUNCTION             -6.16     11.43       0.0
  J5                   JUNCTION             -1.09      8.97       0.0
  J50                  JUNCTION             -6.15     11.76       0.0
  J52                  JUNCTION             -6.13     12.49       0.0
  J57                  JUNCTION             -1.59      8.82       0.0
  J6                   JUNCTION             -2.09      5.83       0.0
  J63                  JUNCTION              1.87      4.03       0.0
  J7                   JUNCTION             -0.42      6.53       0.0
  J70                  JUNCTION              2.00      7.06       0.0
  J71                  JUNCTION              1.80      7.50       0.0
  J8                   JUNCTION             -1.37      8.64       0.0
  J89                  JUNCTION             -1.00      6.26       0.0
  J9                   JUNCTION             -2.20      4.44       0.0
  J96                  JUNCTION             -1.97      5.15       0.0
  outfall              OUTFALL              -6.30     10.00       0.0
  J155                 STORAGE              -4.00      7.18       0.0
  
  
  ************
  Link Summary
  ************
  Name             From Node        To Node          Type            Length    %Slope Roughness
  ---------------------------------------------------------------------------------------------
  C103_1           J71              J3               CONDUIT          380.3    0.6233    0.0100
  C103_3           J3               J5               CONDUIT          261.0    0.2000    0.0100
  C103_4           J5               J57              CONDUIT          252.8    0.2000    0.0100
  C108             J70              J71              CONDUIT          121.0    0.1612    0.0100
  C110             J43              J44              CONDUIT          240.0    0.1667    0.0100
  C125_1           J57              J1               CONDUIT          257.8    0.9757    0.0100
  C125_2           J1               J52              CONDUIT          254.2    0.0100    0.0100
  C147             J7               J4               CONDUIT          393.0    0.2000    0.0100
  C147_2           J4               J57              CONDUIT          194.0    0.2000    0.0100
  C147_5           J63              J7               CONDUIT          273.4    0.8371    0.0100
  C15              J26              J17              CONDUIT          386.0    0.2000    0.0100
  C152             J23              J63              CONDUIT          346.2    0.0323    0.0100
  C152_1           J147             J23              CONDUIT           56.8    0.0317    0.0100
  C158             J17              J151             CONDUIT           40.0    0.2000    0.0100
  C159             J151             J10              CONDUIT           65.0    0.0100    0.0100
  C160             J18              J151             CONDUIT           65.0    0.0100    0.0100
  C167             J104             J32              CONDUIT           77.0    0.0100    0.0100
  C168             J155             J104             CONDUIT           15.0    6.6815    0.0100
  C174             J156             J71              CONDUIT          226.0    0.0863    0.0100
  C18_1            J52              J13              CONDUIT           24.9    0.0104    0.0100
  C18_2            J13              J50              CONDUIT          142.9    0.0104    0.0100
  C2               J50              J46              CONDUIT           71.3    0.0100    0.0100
  C26              J11              J14              CONDUIT          445.6    0.2917    0.0100
  C27              J2               J89              CONDUIT          314.9    0.2000    0.0100
  C38              J96              J32              CONDUIT          130.0    0.1938    0.0100
  C47              J25              J26              CONDUIT          241.0    0.2000    0.0100
  C57              J103             J104             CONDUIT          262.0    0.0100    0.0100
  C62              J32              J30              CONDUIT          305.9    0.0100    0.0100
  C64              J89              J12              CONDUIT          237.9    0.2039    0.0100
  C64_2            J12              J6               CONDUIT          303.5    0.2000    0.0100
  C68_1            J6               J27              CONDUIT           38.4    0.1808    0.0100
  C68_2            J27              J9               CONDUIT           19.2    0.1804    0.0100
  C69              J9               J10              CONDUIT           52.0    0.2000    0.0100
  C70_1            J10              J14              CONDUIT          279.9    0.0046    0.0100
  C70_2            J14              outfall          CONDUIT            5.5    0.0183    0.0100
  C78              J30              J18              CONDUIT          281.0    0.0100    0.0100
  C84              J118             J103             CONDUIT          163.0    0.0100    0.0100
  C85              J44              J118             CONDUIT            8.0    0.0125    0.0100
  C86              J46              J44              CONDUIT          189.0    0.0100    0.0100
  C90_1            J121             J8               CONDUIT          179.1    0.2000    0.0100
  C90_2            J8               J32              CONDUIT          429.7    0.2000    0.0100
  C96              J126             J63              CONDUIT          582.0    0.1436    0.0100
  
  
  *********************
  Cross Section Summary
  *********************
                                        Full     Full     Hyd.     Max.   No. of     Full
  Conduit          Shape               Depth     Area     Rad.    Width  Barrels     Flow
  ---------------------------------------------------------------------------------------
  C103_1           CIRCULAR             1.50     1.77     0.38     1.50        1    10.78
  C103_3           CIRCULAR             1.50     1.77     0.38     1.50        1     6.11
  C103_4           CIRCULAR             1.50     1.77     0.38     1.50        1     6.11
  C108             CIRCULAR             1.25     1.23     0.31     1.25        1     3.37
  C110             CIRCULAR             1.50     1.77     0.38     1.50        1     5.57
  C125_1           CIRCULAR             3.00     7.07     0.75     3.00        1    85.65
  C125_2           RECT_CLOSED          8.00    40.00     1.54     5.00        1    79.21
  C147             CIRCULAR             2.00     3.14     0.50     2.00        1    13.15
  C147_2           CIRCULAR             2.00     3.14     0.50     2.00        1    13.15
  C147_5           CIRCULAR             2.01     3.16     0.50     2.01        1    27.16
  C15              CIRCULAR             1.75     2.41     0.44     1.75        1     9.21
  C152             CIRCULAR             1.26     1.24     0.31     1.26        1     1.53
  C152_1           CIRCULAR             1.26     1.24     0.31     1.26        1     1.51
  C158             CIRCULAR             1.75     2.41     0.44     1.75        1     9.21
  C159             RECT_CLOSED          8.00    40.00     1.54     5.00        1    79.21
  C160             RECT_CLOSED          8.00    40.00     1.54     5.00        1    79.21
  C167             RECT_CLOSED          8.00    40.00     1.54     5.00        1    79.21
  C168             CIRCULAR             2.00     3.14     0.50     2.00        1    76.02
  C174             CIRCULAR             1.00     0.79     0.25     1.00        1     1.36
  C18_1            RECT_CLOSED          8.00    40.00     1.54     5.00        1    80.82
  C18_2            RECT_CLOSED          8.00    40.00     1.54     5.00        1    80.92
  C2               RECT_CLOSED          8.00    40.00     1.54     5.00        1    79.21
  C26              CIRCULAR             1.00     0.79     0.25     1.00        1     2.50
  C27              CIRCULAR             1.25     1.23     0.31     1.25        1     3.76
  C38              CIRCULAR             1.50     1.77     0.38     1.50        1     6.01
  C47              CIRCULAR             1.75     2.41     0.44     1.75        1     9.21
  C57              RECT_CLOSED          8.00    40.00     1.54     5.00        1    79.21
  C62              RECT_CLOSED          8.00    40.00     1.54     5.00        1    79.21
  C64              CIRCULAR             2.00     3.14     0.50     2.00        1    13.28
  C64_2            CIRCULAR             2.00     3.14     0.50     2.00        1    13.15
  C68_1            CIRCULAR             2.00     3.14     0.50     2.00        1    12.51
  C68_2            CIRCULAR             2.00     3.14     0.50     2.00        1    12.49
  C69              CIRCULAR             2.00     3.14     0.50     2.00        1    13.15
  C70_1            RECT_CLOSED         10.00    50.00     1.67     5.00        1    70.50
  C70_2            RECT_CLOSED         10.00    50.00     1.67     5.00        1   141.22
  C78              RECT_CLOSED          8.00    40.00     1.54     5.00        1    79.21
  C84              RECT_CLOSED          8.00    40.00     1.54     5.00        1    79.21
  C85              RECT_CLOSED          8.00    40.00     1.54     5.00        1    88.56
  C86              RECT_CLOSED          8.00    40.00     1.54     5.00        1    79.21
  C90_1            RECT_CLOSED          1.50     1.36     0.28     0.91        1     3.91
  C90_2            RECT_CLOSED          1.50     1.36     0.28     0.91        1     3.91
  C96              CIRCULAR             1.25     1.23     0.31     1.25        1     3.18
  
  
  ****************
  Analysis Options
  ****************
  Flow Units ............... CFS
  Process Models:
    Rainfall/Runoff ........ YES
    RDII ................... NO
    Snowmelt ............... NO
    Groundwater ............ NO
    Flow Routing ........... YES
    Ponding Allowed ........ NO
    Water Quality .......... NO
  Infiltration Method ...... GREEN_AMPT
  Flow Routing Method ...... DYNWAVE
  Surcharge Method ......... EXTRAN
  Starting Date ............ 06/01/2025 00:00:00
  Ending Date .............. 06/01/2025 23:45:00
  Antecedent Dry Days ...... 0.0
  Report Time Step ......... 00:05:00
  Wet Time Step ............ 00:05:00
  Dry Time Step ............ 00:05:00
  Routing Time Step ........ 5.00 sec
  Variable Time Step ....... YES
  Maximum Trials ........... 8
  Number of Threads ........ 2
  Head Tolerance ........... 0.005000 ft
  
  
  **************************        Volume         Depth
  Runoff Quantity Continuity     acre-feet        inches
  **************************     ---------       -------
  Total Precipitation ......         5.476         0.420
  Evaporation Loss .........         0.000         0.000
  Infiltration Loss ........         2.970         0.228
  Surface Runoff ...........         2.216         0.170
  Final Storage ............         0.306         0.023
  Continuity Error (%) .....        -0.292
  
  
  **************************        Volume        Volume
  Flow Routing Continuity        acre-feet      10^6 gal
  **************************     ---------     ---------
  Dry Weather Inflow .......         0.000         0.000
  Wet Weather Inflow .......         2.216         0.722
  Groundwater Inflow .......         0.000         0.000
  RDII Inflow ..............         0.000         0.000
  External Inflow ..........         9.965         3.247
  External Outflow .........        10.071         3.282
  Flooding Loss ............         3.016         0.983
  Evaporation Loss .........         0.000         0.000
  Exfiltration Loss ........         0.000         0.000
  Initial Stored Volume ....         1.620         0.528
  Final Stored Volume ......         4.840         1.577
  Continuity Error (%) .....       -29.900
  
  
  *************************
  Highest Continuity Errors
  *************************
  Node J1 (3.67%)
  Node J52 (2.30%)
  Node J103 (1.69%)
  Node J46 (1.41%)
  Node J50 (1.29%)
  
  
  ***************************
  Time-Step Critical Elements
  ***************************
  Link C70_2 (79.52%)
  Link C168 (16.09%)
  Link C85 (2.06%)
  Link C68_2 (1.79%)
  
  
  ********************************
  Highest Flow Instability Indexes
  ********************************
  Link C68_2 (6)
  Link C85 (6)
  Link C158 (5)
  Link C38 (5)
  Link C68_1 (5)
  
  
  *********************************
  Most Frequent Nonconverging Nodes
  *********************************
  Node outfall (2.36%)
  Node J2 (0.47%)
  Node J5 (0.45%)
  Node J4 (0.45%)
  Node J26 (0.33%)
  
  
  *************************
  Routing Time Step Summary
  *************************
  Minimum Time Step           :     0.50 sec
  Average Time Step           :     0.71 sec
  Maximum Time Step           :     5.00 sec
  % of Time in Steady State   :     0.00
  Average Iterations per Step :     2.26
  % of Steps Not Converging   :     2.36
  Time Step Frequencies       :
      5.000 -  3.155 sec      :     0.74 %
      3.155 -  1.991 sec      :     2.25 %
      1.991 -  1.256 sec      :    10.10 %
      1.256 -  0.792 sec      :     5.09 %
      0.792 -  0.500 sec      :    81.82 %
  
  
  ***************************
  Subcatchment Runoff Summary
  ***************************
  
  ------------------------------------------------------------------------------------------------------------------------------
                            Total      Total      Total      Total     Imperv       Perv      Total       Total     Peak  Runoff
                           Precip      Runon       Evap      Infil     Runoff     Runoff     Runoff      Runoff   Runoff   Coeff
  Subcatchment                 in         in         in         in         in         in         in    10^6 gal      CFS
  ------------------------------------------------------------------------------------------------------------------------------
  Sub_1                      0.42       0.00       0.00       0.25       0.21       0.00       0.15        0.01     0.53   0.353
  Sub_10                     0.42       0.00       0.00       0.15       0.30       0.03       0.24        0.01     0.82   0.576
  Sub_11                     0.42       0.00       0.00       0.25       0.22       0.00       0.15        0.00     0.14   0.366
  Sub_12                     0.42       0.00       0.00       0.27       0.19       0.00       0.13        0.02     0.96   0.314
  Sub_13                     0.42       0.00       0.00       0.27       0.19       0.00       0.13        0.02     0.81   0.320
  Sub_14                     0.42       0.00       0.00       0.26       0.20       0.00       0.14        0.06     2.82   0.333
  Sub_15                     0.42       0.00       0.00       0.24       0.23       0.00       0.16        0.02     0.80   0.378
  Sub_16                     0.42       0.00       0.00       0.27       0.18       0.00       0.13        0.01     0.50   0.308
  Sub_17                     0.42       0.00       0.00       0.30       0.16       0.00       0.11        0.01     0.75   0.263
  Sub_18                     0.42       0.00       0.00       0.18       0.30       0.00       0.21        0.01     0.44   0.507
  Sub_19                     0.42       0.00       0.00       0.18       0.30       0.00       0.21        0.01     0.62   0.500
  Sub_2                      0.42       0.00       0.00       0.22       0.25       0.01       0.18        0.02     1.20   0.424
  Sub_20                     0.42       0.00       0.00       0.25       0.22       0.00       0.15        0.05     2.34   0.364
  Sub_21                     0.42       0.00       0.00       0.20       0.27       0.00       0.19        0.01     0.65   0.455
  Sub_22                     0.42       0.00       0.00       0.19       0.27       0.02       0.21        0.01     0.31   0.492
  Sub_23                     0.42       0.00       0.00       0.23       0.24       0.00       0.17        0.01     0.69   0.404
  Sub_24                     0.42       0.00       0.00       0.24       0.23       0.00       0.16        0.03     1.29   0.378
  Sub_25                     0.42       0.00       0.00       0.29       0.16       0.00       0.11        0.01     0.52   0.269
  Sub_26                     0.42       0.00       0.00       0.24       0.23       0.00       0.16        0.03     1.43   0.384
  Sub_27                     0.42       0.00       0.00       0.22       0.26       0.00       0.18        0.01     0.57   0.430
  Sub_28                     0.42       0.00       0.00       0.20       0.27       0.00       0.19        0.05     2.55   0.453
  Sub_29                     0.42       0.00       0.00       0.19       0.29       0.00       0.20        0.02     1.25   0.487
  Sub_3                      0.42       0.00       0.00       0.18       0.28       0.03       0.22        0.02     0.97   0.524
  Sub_30                     0.42       0.00       0.00       0.19       0.28       0.00       0.20        0.01     0.72   0.475
  Sub_31                     0.42       0.00       0.00       0.20       0.28       0.00       0.19        0.02     0.77   0.461
  Sub_32                     0.42       0.00       0.00       0.19       0.30       0.00       0.21        0.04     2.11   0.492
  Sub_33                     0.42       0.00       0.00       0.17       0.32       0.00       0.22        0.02     0.98   0.532
  Sub_34                     0.42       0.00       0.00       0.22       0.25       0.00       0.17        0.01     0.55   0.417
  Sub_35                     0.42       0.00       0.00       0.21       0.27       0.00       0.19        0.01     0.71   0.448
  Sub_36                     0.42       0.00       0.00       0.27       0.19       0.00       0.13        0.01     0.26   0.321
  Sub_37                     0.42       0.00       0.00       0.18       0.30       0.00       0.21        0.01     0.54   0.500
  Sub_38                     0.42       0.00       0.00       0.20       0.28       0.00       0.20        0.02     1.18   0.468
  Sub_39                     0.42       0.00       0.00       0.25       0.21       0.00       0.15        0.05     2.32   0.358
  Sub_4                      0.42       0.00       0.00       0.17       0.32       0.00       0.22        0.01     0.66   0.526
  Sub_5                      0.42       0.00       0.00       0.05       0.37       0.08       0.33        0.02     0.99   0.794
  Sub_6                      0.42       0.00       0.00       0.16       0.33       0.01       0.24        0.01     0.57   0.560
  Sub_7                      0.42       0.00       0.00       0.19       0.29       0.00       0.20        0.00     0.24   0.481
  Sub_8                      0.42       0.00       0.00       0.30       0.15       0.00       0.11        0.00     0.05   0.251
  Sub_9                      0.42       0.00       0.00       0.29       0.16       0.00       0.11        0.01     0.70   0.269
  
  
  ******************
  Node Depth Summary
  ******************
  
  ---------------------------------------------------------------------------------
                                 Average  Maximum  Maximum  Time of Max    Reported
                                   Depth    Depth      HGL   Occurrence   Max Depth
  Node                 Type         Feet     Feet     Feet  days hr:min        Feet
  ---------------------------------------------------------------------------------
  J1                   JUNCTION     6.48    11.75     5.64     0  00:03        8.60
  J10                  JUNCTION     6.69     9.67     3.37     0  00:00        8.05
  J103                 JUNCTION     6.57    10.56     4.37     0  00:04        7.93
  J104                 JUNCTION     6.60    10.06     3.84     0  00:01        7.95
  J11                  JUNCTION     0.71     4.57     4.57     0  00:01        1.79
  J118                 JUNCTION     6.55    12.12     5.94     0  00:04        7.92
  J12                  JUNCTION     1.88     6.08     4.59     0  00:01        3.25
  J121                 JUNCTION     1.45     9.50     8.49     0  00:04        2.81
  J126                 JUNCTION     0.06     0.76     3.47     0  06:15        0.76
  J13                  JUNCTION     6.51    12.38     6.25     0  00:03        8.33
  J14                  JUNCTION     6.68    10.18     3.88     0  00:00        8.00
  J147                 JUNCTION     0.11     1.41     3.41     0  06:15        1.41
  J151                 JUNCTION     6.68    10.14     3.85     0  00:00        8.01
  J156                 JUNCTION     0.04     0.54     2.54     0  06:15        0.54
  J17                  JUNCTION     2.60     6.73     4.52     0  00:00        3.93
  J18                  JUNCTION     6.67    10.21     3.92     0  00:00        8.00
  J2                   JUNCTION     0.95     7.68     7.31     0  00:03        2.74
  J23                  JUNCTION     0.12     1.38     3.36     0  06:15        1.38
  J25                  JUNCTION     1.40     9.42     8.46     0  00:02        2.70
  J26                  JUNCTION     1.83     7.94     6.50     0  00:02        3.18
  J27                  JUNCTION     2.55     4.90     2.74     0  00:00        3.91
  J3                   JUNCTION     1.10     9.12     8.56     0  00:06        2.57
  J30                  JUNCTION     6.64     9.78     3.52     0  00:01        8.20
  J32                  JUNCTION     6.61    10.58     4.36     0  00:01        7.98
  J4                   JUNCTION     1.63     7.63     6.42     0  00:04        7.63
  J43                  JUNCTION     2.09     8.65     6.95     0  00:03        3.49
  J44                  JUNCTION     6.55    12.57     6.40     0  00:04        7.92
  J46                  JUNCTION     6.53    11.43     5.27     0  00:04        7.97
  J5                   JUNCTION     1.52     8.97     7.88     0  00:04        8.97
  J50                  JUNCTION     6.52    11.76     5.61     0  00:02        8.00
  J52                  JUNCTION     6.51    12.49     6.36     0  00:03        8.17
  J57                  JUNCTION     1.99     8.82     7.22     0  00:04        6.26
  J6                   JUNCTION     2.48     5.83     3.74     0  00:00        3.86
  J63                  JUNCTION     0.06     0.67     2.54     0  06:15        0.67
  J7                   JUNCTION     1.01     6.53     6.11     0  00:06        2.64
  J70                  JUNCTION     0.01     0.24     2.24     0  06:15        0.24
  J71                  JUNCTION     0.03     0.39     2.19     0  06:15        0.39
  J8                   JUNCTION     1.77     8.64     7.27     0  00:04        3.16
  J89                  JUNCTION     1.44     6.26     5.26     0  00:02        2.77
  J9                   JUNCTION     2.58     4.44     2.24     0  00:00        3.97
  J96                  JUNCTION     2.35     5.15     3.18     0  00:01        3.73
  outfall              OUTFALL      6.68     9.70     3.40     0  00:00        8.00
  J155                 STORAGE      4.20     5.74     1.74     0  05:55        5.74
  
  
  *******************
  Node Inflow Summary
  *******************
  
  -------------------------------------------------------------------------------------------------
                                  Maximum  Maximum                  Lateral       Total        Flow
                                  Lateral    Total  Time of Max      Inflow      Inflow     Balance
                                   Inflow   Inflow   Occurrence      Volume      Volume       Error
  Node                 Type           CFS      CFS  days hr:min    10^6 gal    10^6 gal     Percent
  -------------------------------------------------------------------------------------------------
  J1                   JUNCTION      1.43   329.51     0  00:03      0.0282       0.785       3.811
  J10                  JUNCTION      0.05   588.69     0  00:00     0.00105        6.45      -0.007
  J103                 JUNCTION      0.69   365.49     0  00:02      0.0136        2.14       1.715
  J104                 JUNCTION      0.00   440.27     0  00:02           0        5.71       0.524
  J11                  JUNCTION      0.66     3.74     0  00:01      0.0131      0.0176      -6.716
  J118                 JUNCTION      0.87   403.24     0  00:02      0.0165        1.92       0.237
  J12                  JUNCTION      1.78    19.17     0  00:01      0.0334       0.127      -0.189
  J121                 JUNCTION      0.62     3.56     0  00:04      0.0123       0.017      -0.306
  J126                 JUNCTION      2.11     2.11     0  06:15      0.0428      0.0428      -0.022
  J13                  JUNCTION      2.34   413.42     0  00:03       0.048        1.23       1.134
  J14                  JUNCTION      0.00  4539.35     0  00:00           0        7.64       0.466
  J147                 JUNCTION      2.32     2.32     0  06:15      0.0487      0.0487       0.001
  J151                 JUNCTION      0.00   570.62     0  00:00           0        6.19       0.174
  J156                 JUNCTION      0.77     0.77     0  06:15      0.0153      0.0153      -0.024
  J17                  JUNCTION      0.24    46.92     0  00:00     0.00471       0.109       1.245
  J18                  JUNCTION      0.00   545.87     0  00:01           0        6.01       0.512
  J2                   JUNCTION      0.81     5.27     0  00:03       0.016      0.0227       1.091
  J23                  JUNCTION      1.18     3.49     0  06:15      0.0233       0.072       0.004
  J25                  JUNCTION      0.99     9.73     0  00:02      0.0183      0.0285      -0.487
  J26                  JUNCTION      0.57    14.37     0  00:02      0.0108       0.068      -0.007
  J27                  JUNCTION      0.00    35.72     0  00:00           0       0.207      -0.297
  J3                   JUNCTION      0.71     7.57     0  00:05      0.0141      0.0651       0.021
  J30                  JUNCTION      0.75   489.85     0  00:01      0.0148        5.84       0.890
  J32                  JUNCTION      0.50   441.82     0  00:01     0.00987         5.7       0.629
  J4                   JUNCTION      1.29    35.37     0  00:04      0.0256       0.318       0.196
  J43                  JUNCTION      2.55     7.19     0  00:02      0.0548      0.0638       0.527
  J44                  JUNCTION      0.00   404.05     0  17:56           0        1.78       1.304
  J46                  JUNCTION      0.65   385.70     0  00:02      0.0128        1.53       1.428
  J5                   JUNCTION      0.55    15.71     0  00:04      0.0109       0.107       0.081
  J50                  JUNCTION      0.00   423.79     0  00:03           0        1.36       1.307
  J52                  JUNCTION      0.52   506.49     0  00:03      0.0104        1.03       2.353
  J57                  JUNCTION      0.72    59.99     0  00:04      0.0143       0.527       0.289
  J6                   JUNCTION      1.34    28.30     0  00:00       0.026       0.189       0.410
  J63                  JUNCTION      0.98     6.57     0  06:15      0.0194       0.136       0.092
  J7                   JUNCTION      1.25    12.46     0  00:05      0.0247       0.214      -0.012
  J70                  JUNCTION      0.26     0.26     0  06:15     0.00524     0.00524      -0.086
  J71                  JUNCTION      0.54     2.09     0  00:06      0.0107      0.0318       0.225
  J8                   JUNCTION      0.44     4.63     0  00:04     0.00875      0.0431       0.203
  J89                  JUNCTION      0.53    14.11     0  00:02      0.0105      0.0568       0.289
  J9                   JUNCTION      0.70    38.13     0  00:00      0.0139       0.232      -0.208
  J96                  JUNCTION      0.80     9.97     0  00:01      0.0159      0.0227       0.978
  outfall              OUTFALL       0.97  4539.35     0  00:00      0.0167        6.53       0.000
  J155                 STORAGE       2.82    46.01     0  00:01      0.0566        2.65      -0.006
  
  
  **********************
  Node Surcharge Summary
  **********************
  
  Surcharging occurs when water rises above the top of the highest conduit.
  ---------------------------------------------------------------------
                                               Max. Height   Min. Depth
                                   Hours       Above Crown    Below Rim
  Node                 Type      Surcharged           Feet         Feet
  ---------------------------------------------------------------------
  J1                   JUNCTION        0.04          3.746        0.000
  J103                 JUNCTION        0.02          2.563        0.000
  J104                 JUNCTION        0.02          2.062        0.000
  J11                  JUNCTION        7.44          3.566        0.000
  J118                 JUNCTION        0.03          4.118        0.000
  J12                  JUNCTION        9.98          4.079        0.000
  J121                 JUNCTION       10.05          7.996        0.000
  J13                  JUNCTION        0.04          4.385        0.000
  J14                  JUNCTION        0.03          0.180        0.000
  J147                 JUNCTION        0.21          0.150        3.439
  J151                 JUNCTION        0.31          2.140        0.000
  J17                  JUNCTION       14.83          4.983        0.000
  J18                  JUNCTION        0.13          2.207        0.000
  J2                   JUNCTION        8.10          6.434        0.000
  J23                  JUNCTION        0.19          0.125        3.348
  J25                  JUNCTION        8.50          7.668        0.000
  J26                  JUNCTION       10.99          6.190        0.000
  J27                  JUNCTION       13.31          2.903        0.000
  J3                   JUNCTION        7.72          7.621        0.000
  J30                  JUNCTION        0.06          1.778        0.000
  J32                  JUNCTION        0.02          2.584        0.000
  J4                   JUNCTION        8.42          5.627        0.000
  J43                  JUNCTION       13.48          7.150        0.000
  J44                  JUNCTION        0.03          4.573        0.000
  J46                  JUNCTION        0.03          3.432        0.000
  J5                   JUNCTION       10.47          7.466        0.000
  J50                  JUNCTION        0.03          3.757        0.000
  J52                  JUNCTION        0.04          4.494        0.000
  J57                  JUNCTION        4.54          5.816        0.000
  J6                   JUNCTION       12.95          3.834        0.000
  J7                   JUNCTION        2.73          4.525        0.000
  J8                   JUNCTION       11.92          7.137        0.000
  J89                  JUNCTION        7.38          4.261        0.000
  J9                   JUNCTION       13.45          2.440        0.000
  J96                  JUNCTION       14.89          3.653        0.000
  
  
  *********************
  Node Flooding Summary
  *********************
  
  Flooding refers to all water that overflows a node, whether it ponds or not.
  --------------------------------------------------------------------------
                                                             Total   Maximum
                                 Maximum   Time of Max       Flood    Ponded
                        Hours       Rate    Occurrence      Volume     Depth
  Node                 Flooded       CFS   days hr:min    10^6 gal      Feet
  --------------------------------------------------------------------------
  J1                      0.01    310.75      0  00:03       0.017     0.000
  J103                    0.01    124.61      0  00:04       0.004     0.000
  J104                    0.01    107.23      0  00:01       0.001     0.000
  J11                     0.01      3.14      0  00:01       0.000     0.000
  J118                    0.01     60.30      0  00:04       0.001     0.000
  J12                     0.01     13.43      0  00:01       0.000     0.000
  J121                    0.01      3.01      0  00:04       0.000     0.000
  J13                     0.01    289.52      0  00:03       0.005     0.000
  J14                     0.03   4276.49      0  00:00       0.911     0.000
  J151                    0.01    199.63      0  00:00       0.004     0.000
  J17                     0.01     45.12      0  00:00       0.002     0.000
  J18                     0.01    177.64      0  00:00       0.004     0.000
  J2                      0.01      5.16      0  00:03       0.000     0.000
  J25                     0.01      9.07      0  00:02       0.000     0.000
  J26                     0.01     10.10      0  00:02       0.000     0.000
  J27                     0.01     15.00      0  00:00       0.001     0.000
  J3                      0.01      5.68      0  00:06       0.000     0.000
  J30                     0.01    254.66      0  00:01       0.011     0.000
  J32                     0.01    112.65      0  00:01       0.001     0.000
  J4                      0.01     32.63      0  00:04       0.002     0.000
  J43                     0.01      4.18      0  00:03       0.000     0.000
  J44                     0.01     26.58      0  00:04       0.000     0.000
  J46                     0.01    131.61      0  00:04       0.003     0.000
  J5                      0.01     14.30      0  00:04       0.000     0.000
  J50                     0.01    121.09      0  00:03       0.001     0.000
  J52                     0.01    294.99      0  00:03       0.004     0.000
  J57                     0.01     45.72      0  00:04       0.001     0.000
  J6                      0.01     17.44      0  00:00       0.001     0.000
  J7                      0.01      8.25      0  00:06       0.000     0.000
  J8                      0.01      2.67      0  00:04       0.000     0.000
  J89                     0.01     10.19      0  00:02       0.000     0.000
  J9                      0.02     29.69      0  00:00       0.006     0.000
  J96                     0.01      9.81      0  00:01       0.001     0.000
  
  
  **********************
  Storage Volume Summary
  **********************
  
  ------------------------------------------------------------------------------------------------
                         Average    Avg   Evap  Exfil     Maximum    Max    Time of Max    Maximum
                          Volume   Pcnt   Pcnt   Pcnt      Volume   Pcnt     Occurrence    Outflow
  Storage Unit          1000 ft³   Full   Loss   Loss    1000 ft³   Full    days hr:min        CFS
  ------------------------------------------------------------------------------------------------
  J155                   164.914   52.4    0.0    0.0     237.090   75.3       0  05:55      25.26
  
  
  ***********************
  Outfall Loading Summary
  ***********************
  
  -----------------------------------------------------------
                         Flow       Avg       Max       Total
                         Freq      Flow      Flow      Volume
  Outfall Node           Pcnt       CFS       CFS    10^6 gal
  -----------------------------------------------------------
  outfall               77.70     17.96   4539.35       6.529
  -----------------------------------------------------------
  System                77.70     17.96   4539.35       6.529
  
  
  ********************
  Link Flow Summary
  ********************
  
  -----------------------------------------------------------------------------
                                 Maximum  Time of Max   Maximum    Max/    Max/
                                  |Flow|   Occurrence   |Veloc|    Full    Full
  Link                 Type          CFS  days hr:min    ft/sec    Flow   Depth
  -----------------------------------------------------------------------------
  C103_1               CONDUIT      2.09     0  00:06      2.32    0.19    0.63
  C103_3               CONDUIT      7.57     0  00:05      7.41    1.24    1.00
  C103_4               CONDUIT     15.71     0  00:04      9.29    2.57    1.00
  C108                 CONDUIT      0.26     0  06:15      1.19    0.08    0.25
  C110                 CONDUIT      7.19     0  00:02      5.30    1.29    1.00
  C125_1               CONDUIT     59.99     0  00:04      9.26    0.70    1.00
  C125_2               CONDUIT    329.51     0  00:03     10.58    4.16    1.00
  C147                 CONDUIT     12.46     0  00:05      6.72    0.95    1.00
  C147_2               CONDUIT     35.37     0  00:04     12.05    2.69    1.00
  C147_5               CONDUIT      6.55     0  06:15      2.92    0.24    0.67
  C15                  CONDUIT     14.37     0  00:02      6.42    1.56    1.00
  C152                 CONDUIT      3.49     0  06:15      3.43    2.28    0.77
  C152_1               CONDUIT      2.32     0  06:15      1.87    1.53    1.00
  C158                 CONDUIT     46.92     0  00:00     26.32    5.09    1.00
  C159                 CONDUIT    570.62     0  00:00     19.65    7.20    1.00
  C160                 CONDUIT    545.87     0  00:01     22.26    6.89    1.00
  C167                 CONDUIT    440.27     0  00:02     14.62    5.56    1.00
  C168                 CONDUIT     46.01     0  00:01     17.48    0.61    0.93
  C174                 CONDUIT      0.77     0  06:15      2.18    0.57    0.46
  C18_1                CONDUIT    506.49     0  00:03     23.91    6.27    1.00
  C18_2                CONDUIT    413.42     0  00:03     18.45    5.11    1.00
  C2                   CONDUIT    423.79     0  00:03     17.80    5.35    1.00
  C26                  CONDUIT      3.74     0  00:01     24.10    1.49    1.00
  C27                  CONDUIT      5.27     0  00:03      5.76    1.40    1.00
  C38                  CONDUIT      9.97     0  00:01      5.67    1.66    1.00
  C47                  CONDUIT      9.73     0  00:02      5.83    1.06    1.00
  C57                  CONDUIT    365.49     0  00:02     12.60    4.61    1.00
  C62                  CONDUIT    441.82     0  00:01     13.12    5.58    1.00
  C64                  CONDUIT     14.11     0  00:02      6.44    1.06    1.00
  C64_2                CONDUIT     19.17     0  00:01      7.12    1.46    1.00
  C68_1                CONDUIT     28.30     0  00:00     12.89    2.26    1.00
  C68_2                CONDUIT     35.72     0  00:00     11.53    2.86    1.00
  C69                  CONDUIT     38.13     0  00:00     12.14    2.90    1.00
  C70_1                CONDUIT    588.69     0  00:00     12.94    8.35    0.97
  C70_2                CONDUIT   4539.35     0  00:00    >50.00   32.14    0.99
  C78                  CONDUIT    489.85     0  00:01     14.07    6.18    1.00
  C84                  CONDUIT    403.24     0  00:02     12.19    5.09    1.00
  C85                  CONDUIT    404.05     0  17:56     18.43    4.56    1.00
  C86                  CONDUIT    385.70     0  00:02     11.46    4.87    1.00
  C90_1                CONDUIT      3.56     0  00:04      2.68    0.91    1.00
  C90_2                CONDUIT      4.63     0  00:04      4.06    1.18    1.00
  C96                  CONDUIT      2.10     0  06:15      2.89    0.66    0.57
  
  
  ***************************
  Flow Classification Summary
  ***************************
  
  -------------------------------------------------------------------------------------
                      Adjusted    ---------- Fraction of Time in Flow Class ---------- 
                       /Actual         Up    Down  Sub   Sup   Up    Down  Norm  Inlet 
  Conduit               Length    Dry  Dry   Dry   Crit  Crit  Crit  Crit  Ltd   Ctrl  
  -------------------------------------------------------------------------------------
  C103_1                  1.00   0.00  0.13  0.00  0.87  0.00  0.00  0.00  0.99  0.00
  C103_3                  1.00   0.00  0.00  0.00  1.00  0.00  0.00  0.00  0.36  0.00
  C103_4                  1.00   0.00  0.00  0.00  1.00  0.00  0.00  0.00  0.24  0.00
  C108                    1.00   0.13  0.09  0.00  0.78  0.00  0.00  0.00  0.75  0.00
  C110                    1.00   0.00  0.00  0.00  1.00  0.00  0.00  0.00  0.01  0.00
  C125_1                  1.00   0.00  0.00  0.00  1.00  0.00  0.00  0.00  0.02  0.00
  C125_2                  1.00   0.00  0.00  0.00  1.00  0.00  0.00  0.00  0.00  0.00
  C147                    1.00   0.00  0.00  0.00  1.00  0.00  0.00  0.00  0.40  0.00
  C147_2                  1.00   0.00  0.00  0.00  0.99  0.00  0.00  0.00  0.19  0.00
  C147_5                  1.00   0.00  0.15  0.00  0.85  0.00  0.00  0.00  0.99  0.00
  C15                     1.00   0.00  0.00  0.00  1.00  0.00  0.00  0.00  0.10  0.00
  C152                    1.00   0.00  0.00  0.00  1.00  0.00  0.00  0.00  0.08  0.00
  C152_1                  1.00   0.00  0.21  0.00  0.79  0.00  0.00  0.00  0.28  0.00
  C158                    1.00   0.00  0.00  0.00  1.00  0.00  0.00  0.00  0.00  0.00
  C159                    1.00   0.00  0.00  0.00  1.00  0.00  0.00  0.00  0.00  0.00
  C160                    1.00   0.00  0.00  0.00  1.00  0.00  0.00  0.00  0.00  0.00
  C167                    1.00   0.00  0.00  0.00  1.00  0.00  0.00  0.00  0.00  0.00
  C168                    1.00   0.06  0.06  0.00  0.47  0.06  0.15  0.21  0.21  0.00
  C174                    1.00   0.13  0.08  0.00  0.79  0.00  0.00  0.00  0.13  0.00
  C18_1                   1.00   0.00  0.00  0.00  1.00  0.00  0.00  0.00  0.00  0.00
  C18_2                   1.00   0.00  0.00  0.00  1.00  0.00  0.00  0.00  0.00  0.00
  C2                      1.00   0.00  0.00  0.00  1.00  0.00  0.00  0.00  0.00  0.00
  C26                     1.00   0.00  0.00  0.00  0.85  0.00  0.00  0.15  0.33  0.00
  C27                     1.00   0.00  0.05  0.00  0.95  0.00  0.00  0.00  0.31  0.00
  C38                     1.00   0.00  0.00  0.00  1.00  0.00  0.00  0.00  0.00  0.00
  C47                     1.00   0.00  0.00  0.00  1.00  0.00  0.00  0.00  0.27  0.00
  C57                     1.00   0.00  0.00  0.00  1.00  0.00  0.00  0.00  0.00  0.00
  C62                     1.00   0.00  0.00  0.00  1.00  0.00  0.00  0.00  0.00  0.00
  C64                     1.00   0.00  0.00  0.00  1.00  0.00  0.00  0.00  0.26  0.00
  C64_2                   1.00   0.00  0.00  0.00  1.00  0.00  0.00  0.00  0.07  0.00
  C68_1                   1.00   0.00  0.00  0.00  1.00  0.00  0.00  0.00  0.00  0.00
  C68_2                   1.00   0.00  0.00  0.00  1.00  0.00  0.00  0.00  0.00  0.00
  C69                     1.00   0.00  0.00  0.00  1.00  0.00  0.00  0.00  0.00  0.00
  C70_1                   1.00   0.00  0.00  0.00  1.00  0.00  0.00  0.00  0.00  0.00
  C70_2                   1.00   0.00  0.00  0.00  1.00  0.00  0.00  0.00  0.00  0.00
  C78                     1.00   0.00  0.00  0.00  1.00  0.00  0.00  0.00  0.00  0.00
  C84                     1.00   0.00  0.00  0.00  1.00  0.00  0.00  0.00  0.00  0.00
  C85                     1.00   0.00  0.00  0.00  1.00  0.00  0.00  0.00  0.00  0.00
  C86                     1.00   0.00  0.00  0.00  1.00  0.00  0.00  0.00  0.00  0.00
  C90_1                   1.00   0.00  0.00  0.00  1.00  0.00  0.00  0.00  0.24  0.00
  C90_2                   1.00   0.00  0.00  0.00  1.00  0.00  0.00  0.00  0.12  0.00
  C96                     1.00   0.15  0.06  0.00  0.79  0.00  0.00  0.00  0.26  0.00
  
  
  *************************
  Conduit Surcharge Summary
  *************************
  
  ----------------------------------------------------------------------------
                                                           Hours        Hours 
                         --------- Hours Full --------   Above Full   Capacity
  Conduit                Both Ends  Upstream  Dnstream   Normal Flow   Limited
  ----------------------------------------------------------------------------
  C103_1                      0.01      0.01      7.71      0.01         0.01
  C103_3                      7.72      7.72     10.47      0.02         0.01
  C103_4                     10.47     10.47     12.97      0.03         0.02
  C110                       13.48     13.48     15.62      0.01         0.01
  C125_1                      4.54      4.54     18.78      0.01         0.01
  C125_2                      0.02      0.04      0.04      0.01         0.01
  C147                        2.85      2.85      8.42      0.01         0.01
  C147_2                      8.42      8.42     10.54      0.01         0.02
  C147_5                      0.01      0.01      2.73      0.01         0.01
  C15                        10.99     10.99     14.83      0.02         0.01
  C152                        0.01      0.19      0.01      0.74         0.01
  C152_1                      0.19      0.21      0.19      0.52         0.19
  C158                       14.83     14.83     15.22      0.04         0.02
  C159                        0.28      0.30      0.46      0.09         0.04
  C160                        0.11      0.13      0.30      0.10         0.06
  C167                        0.01      0.01      0.02      0.06         0.01
  C168                        0.01      0.01      7.39      0.01         0.01
  C18_1                       0.03      0.03      0.04      0.02         0.02
  C18_2                       0.02      0.04      0.03      0.03         0.02
  C2                          0.02      0.03      0.02      0.03         0.01
  C26                         7.44      7.44     13.97      0.01         0.01
  C27                         8.10      8.10     11.31      0.01         0.01
  C38                        14.89     14.89     16.14      0.01         0.01
  C47                         8.50      8.50     10.99      0.01         0.01
  C57                         0.01      0.02      0.01      0.06         0.01
  C62                         0.01      0.02      0.06      0.08         0.01
  C64                         7.38      7.38      9.98      0.01         0.01
  C64_2                       9.98      9.98     12.95      0.02         0.01
  C68_1                      12.95     12.95     13.30      0.03         0.04
  C68_2                      13.28     13.30     13.44      0.04         0.14
  C69                        13.44     13.44     13.99      0.04         0.02
  C70_1                       0.01      0.01      0.03      0.09         0.01
  C70_2                       0.01      0.03      0.01      0.07         0.01
  C78                         0.03      0.06      0.13      0.09         0.01
  C84                         0.01      0.03      0.02      0.05         0.01
  C85                         0.02      0.03      0.02      0.04         0.02
  C86                         0.01      0.02      0.03      0.04         0.01
  C90_1                      10.05     10.05     11.91      0.01         0.01
  C90_2                      11.91     11.91     16.19      0.02         0.01
  

  Analysis begun on:  Wed Jun 11 04:01:52 2025
  Analysis ended on:  Wed Jun 11 04:01:56 2025
  Total elapsed time: 00:00:04