
  EPA STORM WATER MANAGEMENT MODEL - VERSION 5.2 (Build 5.2.4)
  PYSWMM TOOLKIT API - VERSION v1.0 (2024-04-17)
  ------------------------------------------------------------

  WARNING 11: non-matching attributes in Control Rule OpenTideGate
  
  ERROR 205: invalid keyword LINK at line 611 of [CONTROL] section:
  THEN LINK C70_2 STATUS = OPEN

  
  ERROR 205: invalid keyword LINK at line 612 of [CONTROL] section:
  ELSE LINK C70_2 STATUS = CLOSED
