
  EPA STORM WATER MANAGEMENT MODEL - VERSION 5.2 (Build 5.2.4)
  PYSWMM TOOLKIT API - VERSION v1.0 (2024-04-17)
  ------------------------------------------------------------

  WARNING 04: minimum elevation drop used for Conduit C70_2
  WARNING 04: minimum elevation drop used for Conduit C85
  
  *************
  Element Count
  *************
  Number of rain gages ...... 1
  Number of subcatchments ... 39
  Number of nodes ........... 43
  Number of links ........... 42
  Number of pollutants ...... 0
  Number of land uses ....... 0
  
  
  ****************
  Raingage Summary
  ****************
                                                      Data       Recording
  Name                 Data Source                    Type       Interval 
  ------------------------------------------------------------------------
  rain_gage            rain_gage_timeseries           INTENSITY   15 min.
  
  
  ********************
  Subcatchment Summary
  ********************
  Name                       Area     Width   %Imperv    %Slope Rain Gage            Outlet              
  -----------------------------------------------------------------------------------------------------------
  Sub_1                      2.62    272.79     55.00    3.9580 rain_gage            J89                 
  Sub_10                     2.19    296.41     77.00    2.4860 rain_gage            J12                 
  Sub_11                     0.67    130.53     57.00    5.0240 rain_gage            J6                  
  Sub_12                     5.31    283.97     49.00    3.4940 rain_gage            J12                 
  Sub_13                     4.38    341.66     50.00    2.9930 rain_gage            J2                  
  Sub_14                    14.91    412.40     52.00    3.9710 rain_gage            J155                
  Sub_15                     3.68    325.75     59.00    4.8800 rain_gage            J96                 
  Sub_16                     2.81    372.64     48.00    3.5770 rain_gage            J32                 
  Sub_17                     4.94    458.98     41.00    4.7410 rain_gage            J30                 
  Sub_18                     1.52    250.00     79.00    2.3090 rain_gage            J8                  
  Sub_19                     2.15    372.00     78.00    3.4760 rain_gage            J121                
  Sub_2                      4.81    406.94     64.00    3.8880 rain_gage            J6                  
  Sub_20                    11.54    261.37     57.00    3.9380 rain_gage            J13                 
  Sub_21                     2.48    159.75     71.00    3.2870 rain_gage            J46                 
  Sub_22                     0.94    200.00     69.00    3.2890 rain_gage            J118                
  Sub_23                     2.95    250.00     63.00    3.6520 rain_gage            J103                
  Sub_24                     5.93    412.94     59.00    3.2030 rain_gage            J4                  
  Sub_25                     3.38    300.00     42.00    3.1260 rain_gage            J52                 
  Sub_26                     6.44    408.85     60.00    3.6440 rain_gage            J1                  
  Sub_27                     2.29    250.00     67.00    3.4680 rain_gage            J118                
  Sub_28                    10.61    229.01     71.00    3.1810 rain_gage            J43                 
  Sub_29                     4.46    300.00     76.00    3.1960 rain_gage            J7                  
  Sub_3                      2.79    466.00     72.00    3.7700 rain_gage            outfall             
  Sub_30                     2.64    390.64     74.00    3.0810 rain_gage            J57                 
  Sub_31                     2.90    292.33     72.00    2.7780 rain_gage            J156                
  Sub_32                     7.63    310.58     77.00    2.8180 rain_gage            J126                
  Sub_33                     3.19    461.41     83.00    3.0790 rain_gage            J63                 
  Sub_34                     2.29    250.00     65.00    2.6240 rain_gage            J5                  
  Sub_35                     2.76    217.64     70.00    2.8170 rain_gage            J3                  
  Sub_36                     1.43    235.88     50.00    2.2300 rain_gage            J70                 
  Sub_37                     1.87    251.70     78.00    3.2300 rain_gage            J71                 
  Sub_38                     4.37    354.85     73.00    3.2410 rain_gage            J23                 
  Sub_39                    11.94    244.72     56.00    2.9530 rain_gage            J147                
  Sub_4                      2.18    358.74     82.00    3.9740 rain_gage            J11                 
  Sub_5                      2.02    268.69     96.00    3.0480 rain_gage            J25                 
  Sub_6                      1.69    314.60     85.00    3.7140 rain_gage            J26                 
  Sub_7                      0.86    147.58     75.00    3.3650 rain_gage            J17                 
  Sub_8                      0.37     73.53     39.00    3.1440 rain_gage            J10                 
  Sub_9                      4.52    345.46     42.00    3.8900 rain_gage            J9                  


  *******************
  LID Control Summary
  *******************
                                   No. of        Unit        Unit      % Area    % Imperv      % Perv
  Subcatchment     LID Control      Units        Area       Width     Covered     Treated     Treated
  ---------------------------------------------------------------------------------------------------
  Sub_10           rain_barrel        100        2.95        0.00        0.31       40.76        0.00
  Sub_11           rain_garden          5      100.00        0.00        1.72        0.00       19.95
  Sub_11           rain_barrel          5        2.95        0.00        0.05        9.04        0.00
  Sub_12           rain_garden         35      100.00        0.00        1.51        0.00       14.94
  Sub_14           rain_garden        200      100.00        0.00        3.08        0.00       32.02
  Sub_19           rain_garden         14      100.00        0.00        1.49        0.00       34.17
  Sub_19           rain_barrel        100        2.95        0.00        0.31       40.91        0.00
  Sub_23           rain_barrel         50        2.95        0.00        0.11       18.43        0.00
  Sub_34           rain_garden         30      100.00        0.00        3.01        0.00       43.22
  Sub_34           rain_barrel         60        2.95        0.00        0.18       27.74        0.00
  Sub_35           rain_garden         30      100.00        0.00        2.49        0.00       41.50
  Sub_35           rain_barrel         70        2.95        0.00        0.17       24.95        0.00
  Sub_37           rain_garden         15      100.00        0.00        1.84        0.00       41.45
  Sub_39           rain_garden        200      100.00        0.00        3.84        0.00       43.97
  
  
  ************
  Node Summary
  ************
                                           Invert      Max.    Ponded    External
  Name                 Type                 Elev.     Depth      Area    Inflow  
  -------------------------------------------------------------------------------
  J1                   JUNCTION             -6.11     11.75       0.0
  J10                  JUNCTION             -6.30     10.18       0.0
  J103                 JUNCTION             -6.19     10.56       0.0
  J104                 JUNCTION             -6.22     10.06       0.0
  J11                  JUNCTION              0.00      4.57       0.0
  J118                 JUNCTION             -6.18     12.12       0.0
  J12                  JUNCTION             -1.49      6.08       0.0
  J121                 JUNCTION             -1.01      9.50       0.0
  J126                 JUNCTION              2.71      5.20       0.0
  J13                  JUNCTION             -6.14     12.38       0.0
  J14                  JUNCTION             -6.30     10.18       0.0
  J147                 JUNCTION              2.00      4.84       0.0
  J151                 JUNCTION             -6.29     10.14       0.0
  J156                 JUNCTION              2.00      6.65       0.0
  J17                  JUNCTION             -2.21      6.73       0.0
  J18                  JUNCTION             -6.29     10.21       0.0
  J2                   JUNCTION             -0.37      7.68       0.0
  J23                  JUNCTION              1.98      4.73       0.0
  J25                  JUNCTION             -0.96      9.42       0.0
  J26                  JUNCTION             -1.44      7.94       0.0
  J27                  JUNCTION             -2.16      4.90       0.0
  J3                   JUNCTION             -0.57      9.12       0.0
  J30                  JUNCTION             -6.26      9.78       0.0
  J32                  JUNCTION             -6.23     10.58       0.0
  J4                   JUNCTION             -1.20      7.63       0.0
  J43                  JUNCTION             -1.70      8.65       0.0
  J44                  JUNCTION             -6.18     12.57       0.0
  J46                  JUNCTION             -6.16     11.43       0.0
  J5                   JUNCTION             -1.09      8.97       0.0
  J50                  JUNCTION             -6.15     11.76       0.0
  J52                  JUNCTION             -6.13     12.49       0.0
  J57                  JUNCTION             -1.59      8.82       0.0
  J6                   JUNCTION             -2.09      5.83       0.0
  J63                  JUNCTION              1.87      4.03       0.0
  J7                   JUNCTION             -0.42      6.53       0.0
  J70                  JUNCTION              2.00      7.06       0.0
  J71                  JUNCTION              1.80      7.50       0.0
  J8                   JUNCTION             -1.37      8.64       0.0
  J89                  JUNCTION             -1.00      6.26       0.0
  J9                   JUNCTION             -2.20      4.44       0.0
  J96                  JUNCTION             -1.97      5.15       0.0
  outfall              OUTFALL              -6.30     10.00       0.0
  J155                 STORAGE              -4.00      7.18       0.0
  
  
  ************
  Link Summary
  ************
  Name             From Node        To Node          Type            Length    %Slope Roughness
  ---------------------------------------------------------------------------------------------
  C103_1           J71              J3               CONDUIT          380.3    0.6233    0.0100
  C103_3           J3               J5               CONDUIT          261.0    0.2000    0.0100
  C103_4           J5               J57              CONDUIT          252.8    0.2000    0.0100
  C108             J70              J71              CONDUIT          121.0    0.1612    0.0100
  C110             J43              J44              CONDUIT          240.0    0.1667    0.0100
  C125_1           J57              J1               CONDUIT          257.8    0.9757    0.0100
  C125_2           J1               J52              CONDUIT          254.2    0.0100    0.0100
  C147             J7               J4               CONDUIT          393.0    0.2000    0.0100
  C147_2           J4               J57              CONDUIT          194.0    0.2000    0.0100
  C147_5           J63              J7               CONDUIT          273.4    0.8371    0.0100
  C15              J26              J17              CONDUIT          386.0    0.2000    0.0100
  C152             J23              J63              CONDUIT          346.2    0.0323    0.0100
  C152_1           J147             J23              CONDUIT           56.8    0.0317    0.0100
  C158             J17              J151             CONDUIT           40.0    0.2000    0.0100
  C159             J151             J10              CONDUIT           65.0    0.0100    0.0100
  C160             J18              J151             CONDUIT           65.0    0.0100    0.0100
  C167             J104             J32              CONDUIT           77.0    0.0100    0.0100
  C168             J155             J104             CONDUIT           15.0    6.6815    0.0100
  C174             J156             J71              CONDUIT          226.0    0.0863    0.0100
  C18_1            J52              J13              CONDUIT           24.9    0.0104    0.0100
  C18_2            J13              J50              CONDUIT          142.9    0.0104    0.0100
  C2               J50              J46              CONDUIT           71.3    0.0100    0.0100
  C26              J11              J14              CONDUIT          445.6    0.2917    0.0100
  C27              J2               J89              CONDUIT          314.9    0.2000    0.0100
  C38              J96              J32              CONDUIT          130.0    0.1938    0.0100
  C47              J25              J26              CONDUIT          241.0    0.2000    0.0100
  C57              J103             J104             CONDUIT          262.0    0.0100    0.0100
  C62              J32              J30              CONDUIT          305.9    0.0100    0.0100
  C64              J89              J12              CONDUIT          237.9    0.2039    0.0100
  C64_2            J12              J6               CONDUIT          303.5    0.2000    0.0100
  C68_1            J6               J27              CONDUIT           38.4    0.1808    0.0100
  C68_2            J27              J9               CONDUIT           19.2    0.1804    0.0100
  C69              J9               J10              CONDUIT           52.0    0.2000    0.0100
  C70_1            J10              J14              CONDUIT          279.9    0.0046    0.0100
  C70_2            J14              outfall          CONDUIT            5.5    0.0183    0.0100
  C78              J30              J18              CONDUIT          281.0    0.0100    0.0100
  C84              J118             J103             CONDUIT          163.0    0.0100    0.0100
  C85              J44              J118             CONDUIT            8.0    0.0125    0.0100
  C86              J46              J44              CONDUIT          189.0    0.0100    0.0100
  C90_1            J121             J8               CONDUIT          179.1    0.2000    0.0100
  C90_2            J8               J32              CONDUIT          429.7    0.2000    0.0100
  C96              J126             J63              CONDUIT          582.0    0.1436    0.0100
  
  
  *********************
  Cross Section Summary
  *********************
                                        Full     Full     Hyd.     Max.   No. of     Full
  Conduit          Shape               Depth     Area     Rad.    Width  Barrels     Flow
  ---------------------------------------------------------------------------------------
  C103_1           CIRCULAR             1.50     1.77     0.38     1.50        1    10.78
  C103_3           CIRCULAR             1.50     1.77     0.38     1.50        1     6.11
  C103_4           CIRCULAR             1.50     1.77     0.38     1.50        1     6.11
  C108             CIRCULAR             1.25     1.23     0.31     1.25        1     3.37
  C110             CIRCULAR             1.50     1.77     0.38     1.50        1     5.57
  C125_1           CIRCULAR             3.00     7.07     0.75     3.00        1    85.65
  C125_2           RECT_CLOSED          8.00    40.00     1.54     5.00        1    79.21
  C147             CIRCULAR             2.00     3.14     0.50     2.00        1    13.15
  C147_2           CIRCULAR             2.00     3.14     0.50     2.00        1    13.15
  C147_5           CIRCULAR             2.01     3.16     0.50     2.01        1    27.16
  C15              CIRCULAR             1.75     2.41     0.44     1.75        1     9.21
  C152             CIRCULAR             1.26     1.24     0.31     1.26        1     1.53
  C152_1           CIRCULAR             1.26     1.24     0.31     1.26        1     1.51
  C158             CIRCULAR             1.75     2.41     0.44     1.75        1     9.21
  C159             RECT_CLOSED          8.00    40.00     1.54     5.00        1    79.21
  C160             RECT_CLOSED          8.00    40.00     1.54     5.00        1    79.21
  C167             RECT_CLOSED          8.00    40.00     1.54     5.00        1    79.21
  C168             CIRCULAR             2.00     3.14     0.50     2.00        1    76.02
  C174             CIRCULAR             1.00     0.79     0.25     1.00        1     1.36
  C18_1            RECT_CLOSED          8.00    40.00     1.54     5.00        1    80.82
  C18_2            RECT_CLOSED          8.00    40.00     1.54     5.00        1    80.92
  C2               RECT_CLOSED          8.00    40.00     1.54     5.00        1    79.21
  C26              CIRCULAR             1.00     0.79     0.25     1.00        1     2.50
  C27              CIRCULAR             1.25     1.23     0.31     1.25        1     3.76
  C38              CIRCULAR             1.50     1.77     0.38     1.50        1     6.01
  C47              CIRCULAR             1.75     2.41     0.44     1.75        1     9.21
  C57              RECT_CLOSED          8.00    40.00     1.54     5.00        1    79.21
  C62              RECT_CLOSED          8.00    40.00     1.54     5.00        1    79.21
  C64              CIRCULAR             2.00     3.14     0.50     2.00        1    13.28
  C64_2            CIRCULAR             2.00     3.14     0.50     2.00        1    13.15
  C68_1            CIRCULAR             2.00     3.14     0.50     2.00        1    12.51
  C68_2            CIRCULAR             2.00     3.14     0.50     2.00        1    12.49
  C69              CIRCULAR             2.00     3.14     0.50     2.00        1    13.15
  C70_1            RECT_CLOSED         10.00    50.00     1.67     5.00        1    70.50
  C70_2            RECT_CLOSED         10.00    50.00     1.67     5.00        1   141.22
  C78              RECT_CLOSED          8.00    40.00     1.54     5.00        1    79.21
  C84              RECT_CLOSED          8.00    40.00     1.54     5.00        1    79.21
  C85              RECT_CLOSED          8.00    40.00     1.54     5.00        1    88.56
  C86              RECT_CLOSED          8.00    40.00     1.54     5.00        1    79.21
  C90_1            RECT_CLOSED          1.50     1.36     0.28     0.91        1     3.91
  C90_2            RECT_CLOSED          1.50     1.36     0.28     0.91        1     3.91
  C96              CIRCULAR             1.25     1.23     0.31     1.25        1     3.18
  
  
  ****************
  Analysis Options
  ****************
  Flow Units ............... CFS
  Process Models:
    Rainfall/Runoff ........ YES
    RDII ................... NO
    Snowmelt ............... NO
    Groundwater ............ NO
    Flow Routing ........... YES
    Ponding Allowed ........ NO
    Water Quality .......... NO
  Infiltration Method ...... GREEN_AMPT
  Flow Routing Method ...... DYNWAVE
  Surcharge Method ......... EXTRAN
  Starting Date ............ 06/01/2025 00:00:00
  Ending Date .............. 06/01/2025 23:45:00
  Antecedent Dry Days ...... 0.0
  Report Time Step ......... 00:05:00
  Wet Time Step ............ 00:05:00
  Dry Time Step ............ 00:05:00
  Routing Time Step ........ 5.00 sec
  Variable Time Step ....... YES
  Maximum Trials ........... 8
  Number of Threads ........ 2
  Head Tolerance ........... 0.005000 ft
  
  
  *********************
  Control Actions Taken
  *********************

  
  **************************        Volume         Depth
  Runoff Quantity Continuity     acre-feet        inches
  **************************     ---------       -------
  Initial LID Storage ......         0.243         0.019
  Total Precipitation ......        18.677         1.433
  Evaporation Loss .........         0.000         0.000
  Infiltration Loss ........         9.989         0.766
  Surface Runoff ...........         8.144         0.625
  Final Storage ............         0.785         0.060
  Continuity Error (%) .....         0.004
  
  
  **************************        Volume        Volume
  Flow Routing Continuity        acre-feet      10^6 gal
  **************************     ---------     ---------
  Dry Weather Inflow .......         0.000         0.000
  Wet Weather Inflow .......         8.144         2.654
  Groundwater Inflow .......         0.000         0.000
  RDII Inflow ..............         0.000         0.000
  External Inflow ..........         0.000         0.000
  External Outflow .........         4.977         1.622
  Flooding Loss ............         0.000         0.000
  Evaporation Loss .........         0.000         0.000
  Exfiltration Loss ........         0.000         0.000
  Initial Stored Volume ....         1.620         0.528
  Final Stored Volume ......         4.784         1.559
  Continuity Error (%) .....         0.031
  
  
  *************************
  Highest Continuity Errors
  *************************
  Node J30 (3.20%)
  Node J1 (2.69%)
  Node J103 (2.55%)
  Node J52 (2.32%)
  Node J32 (2.06%)
  
  
  ***************************
  Time-Step Critical Elements
  ***************************
  Link C70_2 (35.85%)
  Link C85 (35.41%)
  Link C168 (26.30%)
  
  
  ********************************
  Highest Flow Instability Indexes
  ********************************
  Link C68_2 (4)
  Link C68_1 (4)
  Link C158 (3)
  Link C85 (2)
  Link C69 (2)
  
  
  *********************************
  Most Frequent Nonconverging Nodes
  *********************************
  Node outfall (2.04%)
  Node J26 (1.19%)
  Node J17 (0.60%)
  Node J5 (0.34%)
  Node J2 (0.15%)
  
  
  *************************
  Routing Time Step Summary
  *************************
  Minimum Time Step           :     0.50 sec
  Average Time Step           :     1.13 sec
  Maximum Time Step           :     5.00 sec
  % of Time in Steady State   :     0.00
  Average Iterations per Step :     2.17
  % of Steps Not Converging   :     2.04
  Time Step Frequencies       :
      5.000 -  3.155 sec      :     4.63 %
      3.155 -  1.991 sec      :    15.80 %
      1.991 -  1.256 sec      :    10.43 %
      1.256 -  0.792 sec      :     3.36 %
      0.792 -  0.500 sec      :    65.79 %
  
  
  ***************************
  Subcatchment Runoff Summary
  ***************************
  
  ------------------------------------------------------------------------------------------------------------------------------
                            Total      Total      Total      Total     Imperv       Perv      Total       Total     Peak  Runoff
                           Precip      Runon       Evap      Infil     Runoff     Runoff     Runoff      Runoff   Runoff   Coeff
  Subcatchment                 in         in         in         in         in         in         in    10^6 gal      CFS
  ------------------------------------------------------------------------------------------------------------------------------
  Sub_1                      1.43       0.00       0.00       0.87       0.77       0.00       0.54        0.04     0.30   0.375
  Sub_10                     1.43       0.00       0.00       0.44       1.07       0.41       0.85        0.05     0.52   0.595
  Sub_11                     1.43       0.00       0.00       0.87       0.78       0.00       0.50        0.01     0.07   0.347
  Sub_12                     1.43       0.00       0.00       0.92       0.67       0.00       0.47        0.07     0.53   0.329
  Sub_13                     1.43       0.00       0.00       0.93       0.70       0.00       0.49        0.06     0.45   0.341
  Sub_14                     1.43       0.00       0.00       0.88       0.70       0.00       0.49        0.20     1.55   0.344
  Sub_15                     1.43       0.00       0.00       0.83       0.82       0.00       0.58        0.06     0.45   0.402
  Sub_16                     1.43       0.00       0.00       0.83       0.67       0.12       0.59        0.04     0.45   0.409
  Sub_17                     1.43       0.00       0.00       1.02       0.57       0.00       0.40        0.05     0.42   0.280
  Sub_18                     1.43       0.00       0.00       0.58       1.10       0.05       0.82        0.03     0.29   0.575
  Sub_19                     1.43       0.00       0.00       0.65       1.07       0.20       0.57        0.03     0.33   0.400
  Sub_2                      1.43       0.00       0.00       0.62       0.89       0.17       0.79        0.10     0.98   0.553
  Sub_20                     1.43       0.00       0.00       0.85       0.79       0.00       0.56        0.17     1.35   0.388
  Sub_21                     1.43       0.00       0.00       0.71       0.99       0.00       0.69        0.05     0.36   0.484
  Sub_22                     1.43       0.00       0.00       0.54       0.96       0.19       0.87        0.02     0.21   0.605
  Sub_23                     1.43       0.00       0.00       0.87       0.88       0.00       0.50        0.04     0.31   0.350
  Sub_24                     1.43       0.00       0.00       0.83       0.82       0.00       0.58        0.09     0.72   0.402
  Sub_25                     1.43       0.00       0.00       0.92       0.59       0.09       0.50        0.05     0.44   0.348
  Sub_26                     1.43       0.00       0.00       0.82       0.84       0.00       0.59        0.10     0.80   0.409
  Sub_27                     1.43       0.00       0.00       0.75       0.93       0.00       0.65        0.04     0.32   0.457
  Sub_28                     1.43       0.00       0.00       0.71       0.99       0.00       0.69        0.20     1.55   0.484
  Sub_29                     1.43       0.00       0.00       0.64       1.06       0.03       0.77        0.09     0.74   0.537
  Sub_3                      1.43       0.00       0.00       0.50       1.00       0.21       0.91        0.07     0.64   0.635
  Sub_30                     1.43       0.00       0.00       0.66       1.03       0.02       0.74        0.05     0.43   0.519
  Sub_31                     1.43       0.00       0.00       0.70       1.00       0.00       0.71        0.06     0.43   0.493
  Sub_32                     1.43       0.00       0.00       0.62       1.07       0.03       0.78        0.16     1.28   0.545
  Sub_33                     1.43       0.00       0.00       0.50       1.16       0.09       0.90        0.08     0.69   0.626
  Sub_34                     1.43       0.00       0.00       0.83       0.88       0.03       0.46        0.03     0.23   0.322
  Sub_35                     1.43       0.00       0.00       0.76       0.95       0.06       0.53        0.04     0.33   0.371
  Sub_36                     1.43       0.00       0.00       0.93       0.70       0.00       0.49        0.02     0.15   0.341
  Sub_37                     1.43       0.00       0.00       0.59       1.07       0.04       0.77        0.04     0.32   0.539
  Sub_38                     1.43       0.00       0.00       0.68       1.02       0.01       0.72        0.09     0.66   0.503
  Sub_39                     1.43       0.00       0.00       0.83       0.75       0.00       0.53        0.17     1.32   0.367
  Sub_4                      1.43       0.00       0.00       0.52       1.14       0.08       0.88        0.05     0.46   0.615
  Sub_5                      1.43       0.00       0.00       0.16       1.34       0.30       1.24        0.07     0.56   0.865
  Sub_6                      1.43       0.00       0.00       0.46       1.19       0.11       0.94        0.04     0.38   0.658
  Sub_7                      1.43       0.00       0.00       0.65       1.05       0.02       0.76        0.02     0.14   0.529
  Sub_8                      1.43       0.00       0.00       1.04       0.54       0.00       0.38        0.00     0.03   0.266
  Sub_9                      1.43       0.00       0.00       0.92       0.59       0.09       0.50        0.06     0.58   0.348
  

  ***********************
  LID Performance Summary
  ***********************

  --------------------------------------------------------------------------------------------------------------------
                                         Total      Evap     Infil   Surface    Drain    Initial     Final  Continuity
                                        Inflow      Loss      Loss   Outflow   Outflow   Storage   Storage       Error
  Subcatchment      LID Control             in        in        in        in        in        in        in           %
  --------------------------------------------------------------------------------------------------------------------
  Sub_10            rain_barrel          98.62      0.00      0.00     64.37      0.00      0.00     34.25       -0.00
  Sub_11            rain_garden           1.43      0.00      0.00      0.00      0.00      2.40      3.83        0.00
  Sub_11            rain_barrel          97.54      0.00      0.00     63.29      0.00      0.00     34.25       -0.00
  Sub_12            rain_garden           1.43      0.00      0.00      0.00      0.00      2.40      3.83        0.00
  Sub_14            rain_garden           1.43      0.00      0.00      0.00      0.00      2.40      3.83        0.00
  Sub_19            rain_garden           5.98      0.00      1.52      0.00      0.00      2.40      6.87       -0.09
  Sub_19            rain_barrel          97.33      0.00      0.00     63.08      0.00      0.00     34.25        0.00
  Sub_23            rain_barrel          98.58      0.00      0.00     64.33      0.00      0.00     34.25       -0.00
  Sub_34            rain_garden           1.87      0.00      0.00      0.00      0.00      2.40      4.27        0.00
  Sub_34            rain_barrel          95.95      0.00      0.00     61.70      0.00      0.00     34.25        0.00
  Sub_35            rain_garden           2.35      0.00      0.00      0.00      0.00      2.40      4.75       -0.01
  Sub_35            rain_barrel          96.72      0.00      0.00     62.47      0.00      0.00     34.25        0.00
  Sub_37            rain_garden           2.35      0.00      0.00      0.00      0.00      2.40      4.75       -0.01
  Sub_39            rain_garden           1.43      0.00      0.00      0.00      0.00      2.40      3.83        0.00
  
  ******************
  Node Depth Summary
  ******************
  
  ---------------------------------------------------------------------------------
                                 Average  Maximum  Maximum  Time of Max    Reported
                                   Depth    Depth      HGL   Occurrence   Max Depth
  Node                 Type         Feet     Feet     Feet  days hr:min        Feet
  ---------------------------------------------------------------------------------
  J1                   JUNCTION     5.27     7.62     1.52     0  07:25        7.51
  J10                  JUNCTION     5.46     7.71     1.41     0  07:10        7.66
  J103                 JUNCTION     5.35     7.64     1.44     0  07:16        7.58
  J104                 JUNCTION     5.38     7.66     1.44     0  07:16        7.62
  J11                  JUNCTION     0.36     4.57     4.57     0  06:55        1.39
  J118                 JUNCTION     5.34     7.64     1.46     0  07:26        7.58
  J12                  JUNCTION     1.11     4.02     2.53     0  06:55        2.85
  J121                 JUNCTION     0.77     5.74     4.73     0  05:09        2.41
  J126                 JUNCTION     0.29     0.56     3.27     0  06:46        0.56
  J13                  JUNCTION     5.30     7.62     1.49     0  07:26        7.54
  J14                  JUNCTION     5.45     7.71     1.41     0  07:10        7.67
  J147                 JUNCTION     0.51     0.93     2.93     0  06:15        0.93
  J151                 JUNCTION     5.45     7.70     1.41     0  07:10        7.66
  J156                 JUNCTION     0.21     0.40     2.40     0  06:06        0.40
  J17                  JUNCTION     1.71     3.65     1.43     0  05:43        3.59
  J18                  JUNCTION     5.44     7.69     1.41     0  07:17        7.67
  J2                   JUNCTION     0.50     4.74     4.37     0  06:55        1.74
  J23                  JUNCTION     0.52     0.94     2.92     0  06:15        0.94
  J25                  JUNCTION     0.76     9.30     8.34     0  05:55        2.34
  J26                  JUNCTION     1.06     7.94     6.50     0  05:22        2.82
  J27                  JUNCTION     1.69     3.65     1.49     0  07:10        3.52
  J3                   JUNCTION     0.62     7.77     7.21     0  05:13        2.05
  J30                  JUNCTION     5.42     7.68     1.42     0  07:10        7.67
  J32                  JUNCTION     5.39     7.66     1.43     0  07:09        7.62
  J4                   JUNCTION     0.98     7.08     5.87     0  07:35        2.70
  J43                  JUNCTION     1.29     3.18     1.48     0  07:26        3.12
  J44                  JUNCTION     5.34     7.64     1.46     0  07:26        7.58
  J46                  JUNCTION     5.32     7.65     1.50     0  07:26        7.56
  J5                   JUNCTION     0.86     8.97     7.88     0  05:20        2.55
  J50                  JUNCTION     5.31     7.65     1.50     0  07:26        7.56
  J52                  JUNCTION     5.30     7.62     1.48     0  07:25        7.54
  J57                  JUNCTION     1.20     4.40     2.81     0  07:15        3.03
  J6                   JUNCTION     1.63     3.65     1.55     0  06:58        3.45
  J63                  JUNCTION     0.27     0.51     2.38     0  06:30        0.51
  J7                   JUNCTION     0.65     6.53     6.11     0  07:26        1.99
  J70                  JUNCTION     0.09     0.18     2.18     0  06:15        0.18
  J71                  JUNCTION     0.15     0.29     2.10     0  06:30        0.29
  J8                   JUNCTION     0.99     5.20     3.83     0  05:09        2.77
  J89                  JUNCTION     0.79     4.50     3.50     0  06:58        2.36
  J9                   JUNCTION     1.72     3.67     1.47     0  07:10        3.55
  J96                  JUNCTION     1.50     3.40     1.43     0  07:09        3.36
  outfall              OUTFALL      6.69     8.00     1.70     0  06:00        8.00
  J155                 STORAGE      3.75     5.31     1.31     0  07:23        5.30
  
  
  *******************
  Node Inflow Summary
  *******************
  
  -------------------------------------------------------------------------------------------------
                                  Maximum  Maximum                  Lateral       Total        Flow
                                  Lateral    Total  Time of Max      Inflow      Inflow     Balance
                                   Inflow   Inflow   Occurrence      Volume      Volume       Error
  Node                 Type           CFS      CFS  days hr:min    10^6 gal    10^6 gal     Percent
  -------------------------------------------------------------------------------------------------
  J1                   JUNCTION      0.80    10.42     0  07:02       0.103        1.03       2.764
  J10                  JUNCTION      0.03    47.43     0  07:28     0.00381         1.8       1.762
  J103                 JUNCTION      0.31    21.03     0  07:01      0.0401        1.47       2.614
  J104                 JUNCTION      0.00    37.32     0  07:28           0        2.28       1.337
  J11                  JUNCTION      0.46     0.59     0  05:10       0.052      0.0523       0.466
  J118                 JUNCTION      0.52    20.43     0  07:01      0.0629        1.44       0.977
  J12                  JUNCTION      1.05     1.93     0  05:13       0.119       0.217      -0.039
  J121                 JUNCTION      0.33     0.62     0  05:05      0.0335      0.0337      -0.092
  J126                 JUNCTION      1.28     1.28     0  06:45       0.162       0.162       0.001
  J13                  JUNCTION      1.35    16.70     0  07:02       0.174         1.2       1.232
  J14                  JUNCTION      0.00    49.21     0  07:28           0        1.61       1.612
  J147                 JUNCTION      1.32     1.32     0  06:15        0.17        0.17       0.000
  J151                 JUNCTION      0.00    44.87     0  07:28           0        1.65       0.718
  J156                 JUNCTION      0.43     0.43     0  06:15      0.0557      0.0557      -0.000
  J17                  JUNCTION      0.14     1.43     0  05:54      0.0177       0.132       1.228
  J18                  JUNCTION      0.00    45.23     0  07:28           0        1.59       1.989
  J2                   JUNCTION      0.45     0.45     0  06:15       0.058       0.058      -0.038
  J23                  JUNCTION      0.66     1.98     0  06:15      0.0855       0.256       0.002
  J25                  JUNCTION      0.56     0.63     0  05:55      0.0679      0.0679      -0.467
  J26                  JUNCTION      0.38     1.72     0  05:43      0.0432       0.113       1.244
  J27                  JUNCTION      0.00     2.89     0  06:55           0        0.33       0.072
  J3                   JUNCTION      0.33     1.21     0  06:30      0.0399       0.154      -0.076
  J30                  JUNCTION      0.42    42.36     0  07:28      0.0537        1.64       3.309
  J32                  JUNCTION      0.45    38.85     0  07:29      0.0447         1.7       2.106
  J4                   JUNCTION      0.72     6.44     0  07:03      0.0928       0.682       0.025
  J43                  JUNCTION      1.55     1.55     0  06:15         0.2         0.2       0.241
  J44                  JUNCTION      0.00    19.79     0  07:01           0         1.4       1.350
  J46                  JUNCTION      0.36    17.74     0  07:01      0.0466        1.22       1.905
  J5                   JUNCTION      0.23     1.79     0  05:14      0.0287       0.183       0.148
  J50                  JUNCTION      0.00    17.42     0  07:02           0        1.19       1.601
  J52                  JUNCTION      0.44    14.26     0  07:02      0.0458        1.05       2.372
  J57                  JUNCTION      0.43     8.23     0  07:03      0.0532       0.919       0.068
  J6                   JUNCTION      1.05     2.89     0  06:55       0.113       0.331       0.305
  J63                  JUNCTION      0.69     3.89     0  06:30      0.0778       0.496      -0.003
  J7                   JUNCTION      0.74     4.61     0  06:31       0.093       0.589      -0.011
  J70                  JUNCTION      0.15     0.15     0  06:15       0.019       0.019      -0.004
  J71                  JUNCTION      0.32     0.89     0  06:30      0.0392       0.114      -0.023
  J8                   JUNCTION      0.29     0.65     0  05:06      0.0339      0.0686       0.423
  J89                  JUNCTION      0.30     0.93     0  05:14      0.0382       0.097      -0.084
  J9                   JUNCTION      0.58     3.47     0  06:55      0.0611       0.392       0.105
  J96                  JUNCTION      0.45     0.45     0  06:15      0.0576      0.0583       0.565
  outfall              OUTFALL       0.64    50.09     0  07:28       0.069        1.62       0.000
  J155                 STORAGE       1.55    33.62     0  07:02       0.199        1.69      -0.004
  
  
  **********************
  Node Surcharge Summary
  **********************
  
  Surcharging occurs when water rises above the top of the highest conduit.
  ---------------------------------------------------------------------
                                               Max. Height   Min. Depth
                                   Hours       Above Crown    Below Rim
  Node                 Type      Surcharged           Feet         Feet
  ---------------------------------------------------------------------
  J11                  JUNCTION        0.96          3.566        0.000
  J12                  JUNCTION        3.35          2.020        2.059
  J121                 JUNCTION        3.37          4.238        3.758
  J17                  JUNCTION        4.78          1.895        3.088
  J2                   JUNCTION        1.24          3.494        2.940
  J25                  JUNCTION        2.29          7.546        0.122
  J26                  JUNCTION        3.64          6.190        0.000
  J27                  JUNCTION        4.32          1.651        1.252
  J3                   JUNCTION        1.15          6.272        1.349
  J4                   JUNCTION        2.92          5.076        0.551
  J43                  JUNCTION        4.38          1.682        5.468
  J5                   JUNCTION        3.48          7.466        0.000
  J57                  JUNCTION        0.09          1.400        4.416
  J6                   JUNCTION        4.21          1.645        2.189
  J7                   JUNCTION        0.06          4.525        0.000
  J8                   JUNCTION        3.89          3.702        3.435
  J89                  JUNCTION        0.95          2.496        1.765
  J9                   JUNCTION        4.37          1.665        0.775
  J96                  JUNCTION        4.79          1.897        1.756
  
  
  *********************
  Node Flooding Summary
  *********************
  
  Flooding refers to all water that overflows a node, whether it ponds or not.
  --------------------------------------------------------------------------
                                                             Total   Maximum
                                 Maximum   Time of Max       Flood    Ponded
                        Hours       Rate    Occurrence      Volume     Depth
  Node                 Flooded       CFS   days hr:min    10^6 gal      Feet
  --------------------------------------------------------------------------
  J11                     0.01      0.24      0  06:55       0.000     0.000
  J26                     0.01      1.07      0  05:43       0.000     0.000
  J5                      0.01      0.60      0  05:20       0.000     0.000
  J7                      0.01      0.49      0  07:26       0.000     0.000
  
  
  **********************
  Storage Volume Summary
  **********************
  
  ------------------------------------------------------------------------------------------------
                         Average    Avg   Evap  Exfil     Maximum    Max    Time of Max    Maximum
                          Volume   Pcnt   Pcnt   Pcnt      Volume   Pcnt     Occurrence    Outflow
  Storage Unit          1000 ft³   Full   Loss   Loss    1000 ft³   Full    days hr:min        CFS
  ------------------------------------------------------------------------------------------------
  J155                   144.054   45.7    0.0    0.0     215.591   68.4       0  07:23      18.86
  
  
  ***********************
  Outfall Loading Summary
  ***********************
  
  -----------------------------------------------------------
                         Flow       Avg       Max       Total
                         Freq      Flow      Flow      Volume
  Outfall Node           Pcnt       CFS       CFS    10^6 gal
  -----------------------------------------------------------
  outfall               80.59      6.84     50.09       1.622
  -----------------------------------------------------------
  System                80.59      6.84     50.09       1.622
  
  
  ********************
  Link Flow Summary
  ********************
  
  -----------------------------------------------------------------------------
                                 Maximum  Time of Max   Maximum    Max/    Max/
                                  |Flow|   Occurrence   |Veloc|    Full    Full
  Link                 Type          CFS  days hr:min    ft/sec    Flow   Depth
  -----------------------------------------------------------------------------
  C103_1               CONDUIT      0.89     0  06:30      2.49    0.08    0.59
  C103_3               CONDUIT      1.59     0  05:14      2.36    0.26    1.00
  C103_4               CONDUIT      1.79     0  05:14      2.28    0.29    1.00
  C108                 CONDUIT      0.15     0  06:15      0.93    0.04    0.19
  C110                 CONDUIT      1.55     0  06:15      2.64    0.28    1.00
  C125_1               CONDUIT      9.71     0  07:02      5.97    0.11    1.00
  C125_2               CONDUIT     13.83     0  07:02      0.67    0.17    0.95
  C147                 CONDUIT      5.80     0  07:03      3.43    0.44    1.00
  C147_2               CONDUIT      6.42     0  07:03      4.84    0.49    1.00
  C147_5               CONDUIT      3.89     0  06:30      4.03    0.14    0.62
  C15                  CONDUIT      1.30     0  05:54      2.07    0.14    1.00
  C152                 CONDUIT      1.98     0  06:15      2.68    1.29    0.58
  C152_1               CONDUIT      1.32     0  06:15      1.34    0.87    0.74
  C158                 CONDUIT      1.43     0  05:54      2.43    0.16    1.00
  C159                 CONDUIT     44.61     0  07:28      1.19    0.56    0.96
  C160                 CONDUIT     44.02     0  07:28      1.17    0.56    0.96
  C167                 CONDUIT     37.65     0  07:29      1.01    0.48    0.96
  C168                 CONDUIT     32.22     0  07:02     12.82    0.42    0.83
  C174                 CONDUIT      0.43     0  06:15      1.80    0.32    0.34
  C18_1                CONDUIT     15.47     0  07:02      0.62    0.19    0.95
  C18_2                CONDUIT     17.42     0  07:02      0.68    0.22    0.95
  C2                   CONDUIT     17.41     0  07:01      0.59    0.22    0.96
  C26                  CONDUIT      0.48     0  07:02      2.16    0.19    1.00
  C27                  CONDUIT      0.66     0  05:14      1.81    0.18    1.00
  C38                  CONDUIT      0.45     0  05:59      1.95    0.07    1.00
  C47                  CONDUIT      1.36     0  05:43      1.64    0.15    1.00
  C57                  CONDUIT     20.69     0  07:28      0.56    0.26    0.95
  C62                  CONDUIT     42.03     0  07:28      1.12    0.53    0.96
  C64                  CONDUIT      1.17     0  05:13      1.62    0.09    1.00
  C64_2                CONDUIT      1.93     0  05:13      2.10    0.15    1.00
  C68_1                CONDUIT      2.89     0  06:55      2.65    0.23    1.00
  C68_2                CONDUIT      2.90     0  06:55      2.62    0.23    1.00
  C69                  CONDUIT      3.48     0  06:55      3.17    0.26    1.00
  C70_1                CONDUIT     48.86     0  07:28      1.29    0.69    0.77
  C70_2                CONDUIT     49.60     0  07:28      1.31    0.35    0.77
  C78                  CONDUIT     45.23     0  07:28      1.20    0.57    0.96
  C84                  CONDUIT     20.75     0  07:01      0.56    0.26    0.95
  C85                  CONDUIT     19.96     0  07:01      0.54    0.23    0.95
  C86                  CONDUIT     18.37     0  07:01      0.52    0.23    0.96
  C90_1                CONDUIT      0.44     0  05:05      1.04    0.11    1.00
  C90_2                CONDUIT      0.66     0  05:07      1.88    0.17    1.00
  C96                  CONDUIT      1.28     0  06:46      2.54    0.40    0.43
  
  
  ***************************
  Flow Classification Summary
  ***************************
  
  -------------------------------------------------------------------------------------
                      Adjusted    ---------- Fraction of Time in Flow Class ---------- 
                       /Actual         Up    Down  Sub   Sup   Up    Down  Norm  Inlet 
  Conduit               Length    Dry  Dry   Dry   Crit  Crit  Crit  Crit  Ltd   Ctrl  
  -------------------------------------------------------------------------------------
  C103_1                  1.00   0.00  0.00  0.00  1.00  0.00  0.00  0.00  0.99  0.00
  C103_3                  1.00   0.00  0.00  0.00  1.00  0.00  0.00  0.00  0.79  0.00
  C103_4                  1.00   0.00  0.00  0.00  1.00  0.00  0.00  0.00  0.73  0.00
  C108                    1.00   0.00  0.00  0.00  1.00  0.00  0.00  0.00  0.95  0.00
  C110                    1.00   0.00  0.00  0.00  0.81  0.00  0.00  0.19  0.00  0.00
  C125_1                  1.00   0.00  0.00  0.00  0.83  0.01  0.00  0.17  0.05  0.00
  C125_2                  1.00   0.00  0.00  0.00  1.00  0.00  0.00  0.00  0.00  0.00
  C147                    1.00   0.00  0.00  0.00  1.00  0.00  0.00  0.00  0.83  0.00
  C147_2                  1.00   0.00  0.00  0.00  0.88  0.12  0.00  0.00  0.52  0.00
  C147_5                  1.00   0.00  0.00  0.00  0.83  0.17  0.00  0.00  1.00  0.00
  C15                     1.00   0.00  0.00  0.00  1.00  0.00  0.00  0.00  0.29  0.00
  C152                    1.00   0.00  0.00  0.00  1.00  0.00  0.00  0.00  0.00  0.00
  C152_1                  1.00   0.00  0.00  0.00  1.00  0.00  0.00  0.00  0.14  0.00
  C158                    1.00   0.00  0.00  0.00  0.81  0.00  0.00  0.19  0.00  0.00
  C159                    1.00   0.00  0.01  0.00  0.99  0.00  0.00  0.00  0.01  0.00
  C160                    1.00   0.01  0.02  0.00  0.97  0.00  0.00  0.00  0.00  0.00
  C167                    1.00   0.01  0.04  0.00  0.96  0.00  0.00  0.00  0.00  0.00
  C168                    1.00   0.20  0.01  0.00  0.11  0.04  0.07  0.57  0.07  0.00
  C174                    1.00   0.00  0.00  0.00  1.00  0.00  0.00  0.00  0.00  0.00
  C18_1                   1.00   0.00  0.01  0.00  0.99  0.00  0.00  0.00  0.03  0.00
  C18_2                   1.00   0.00  0.00  0.00  1.00  0.00  0.00  0.00  0.00  0.00
  C2                      1.00   0.00  0.03  0.00  0.97  0.00  0.00  0.00  0.02  0.00
  C26                     1.00   0.00  0.00  0.00  0.58  0.00  0.00  0.42  0.43  0.00
  C27                     1.00   0.00  0.00  0.00  1.00  0.00  0.00  0.00  0.38  0.00
  C38                     1.00   0.00  0.00  0.00  0.81  0.00  0.00  0.19  0.00  0.00
  C47                     1.00   0.00  0.00  0.00  1.00  0.00  0.00  0.00  0.77  0.00
  C57                     1.00   0.01  0.00  0.00  0.99  0.00  0.00  0.00  0.00  0.00
  C62                     1.00   0.00  0.00  0.00  0.99  0.00  0.00  0.00  0.00  0.00
  C64                     1.00   0.00  0.00  0.00  1.00  0.00  0.00  0.00  0.77  0.00
  C64_2                   1.00   0.00  0.00  0.00  1.00  0.00  0.00  0.00  0.27  0.00
  C68_1                   1.00   0.00  0.00  0.00  1.00  0.00  0.00  0.00  0.01  0.00
  C68_2                   1.00   0.00  0.00  0.00  1.00  0.00  0.00  0.00  0.08  0.00
  C69                     1.00   0.00  0.00  0.00  0.81  0.00  0.00  0.19  0.00  0.00
  C70_1                   1.00   0.01  0.02  0.00  0.97  0.00  0.00  0.00  0.00  0.00
  C70_2                   1.00   0.00  0.00  0.00  1.00  0.00  0.00  0.00  0.00  0.00
  C78                     1.00   0.00  0.00  0.00  1.00  0.00  0.00  0.00  0.02  0.00
  C84                     1.00   0.00  0.00  0.00  1.00  0.00  0.00  0.00  0.00  0.00
  C85                     1.00   0.00  0.01  0.00  0.98  0.00  0.00  0.00  0.00  0.00
  C86                     1.00   0.00  0.00  0.00  1.00  0.00  0.00  0.00  0.04  0.00
  C90_1                   1.00   0.00  0.00  0.00  1.00  0.00  0.00  0.00  0.72  0.00
  C90_2                   1.00   0.00  0.00  0.00  0.81  0.00  0.00  0.18  0.15  0.00
  C96                     1.00   0.00  0.00  0.00  1.00  0.00  0.00  0.00  0.06  0.00
  
  
  *************************
  Conduit Surcharge Summary
  *************************
  
  ----------------------------------------------------------------------------
                                                           Hours        Hours 
                         --------- Hours Full --------   Above Full   Capacity
  Conduit                Both Ends  Upstream  Dnstream   Normal Flow   Limited
  ----------------------------------------------------------------------------
  C103_1                      0.01      0.01      1.15      0.01         0.01
  C103_3                      1.15      1.15      3.48      0.01         0.01
  C103_4                      3.48      3.48      4.22      0.01         0.01
  C110                        4.38      4.38      5.00      0.01         0.01
  C125_1                      0.09      0.09      5.94      0.01         0.01
  C147                        0.07      0.07      2.92      0.01         0.01
  C147_2                      2.92      2.92      3.49      0.01         0.01
  C147_5                      0.01      0.01      0.06      0.01         0.01
  C15                         3.64      3.64      4.78      0.01         0.03
  C152                        0.01      0.01      0.01      2.84         0.01
  C158                        4.78      4.78      4.90      0.01         0.03
  C168                        0.01      0.01      0.93      0.01         0.01
  C26                         0.96      0.96      4.53      0.01         0.01
  C27                         1.24      1.24      3.73      0.01         0.01
  C38                         4.79      4.79      5.19      0.01         0.01
  C47                         2.29      2.29      3.64      0.01         0.01
  C64                         0.95      0.95      3.35      0.01         0.01
  C64_2                       3.35      3.35      4.21      0.01         0.01
  C68_1                       4.21      4.21      4.32      0.01         0.01
  C68_2                       4.32      4.32      4.37      0.01         0.04
  C69                         4.37      4.37      4.53      0.01         0.01
  C90_1                       3.37      3.37      3.89      0.01         0.01
  C90_2                       3.89      3.89      5.21      0.01         0.01
  

  Analysis begun on:  Sat Jun 14 17:03:34 2025
  Analysis ended on:  Sat Jun 14 17:03:37 2025
  Total elapsed time: 00:00:03