
  EPA STORM WATER MANAGEMENT MODEL - VERSION 5.2 (Build 5.2.4)
  PYSWMM TOOLKIT API - VERSION v1.0 (2024-04-17)
  ------------------------------------------------------------

  WARNING 04: minimum elevation drop used for Conduit C70_2
  WARNING 04: minimum elevation drop used for Conduit C85
  
  *************
  Element Count
  *************
  Number of rain gages ...... 1
  Number of subcatchments ... 39
  Number of nodes ........... 43
  Number of links ........... 42
  Number of pollutants ...... 0
  Number of land uses ....... 0
  
  
  ****************
  Raingage Summary
  ****************
                                                      Data       Recording
  Name                 Data Source                    Type       Interval 
  ------------------------------------------------------------------------
  rain_gage            rain_gage_timeseries           INTENSITY   15 min.
  
  
  ********************
  Subcatchment Summary
  ********************
  Name                       Area     Width   %Imperv    %Slope Rain Gage            Outlet              
  -----------------------------------------------------------------------------------------------------------
  Sub_1                      2.62    272.79     55.00    3.9580 rain_gage            J89                 
  Sub_10                     2.19    296.41     77.00    2.4860 rain_gage            J12                 
  Sub_11                     0.67    130.53     57.00    5.0240 rain_gage            J6                  
  Sub_12                     5.31    283.97     49.00    3.4940 rain_gage            J12                 
  Sub_13                     4.38    341.66     50.00    2.9930 rain_gage            J2                  
  Sub_14                    14.91    412.40     52.00    3.9710 rain_gage            J155                
  Sub_15                     3.68    325.75     59.00    4.8800 rain_gage            J96                 
  Sub_16                     2.81    372.64     48.00    3.5770 rain_gage            J32                 
  Sub_17                     4.94    458.98     41.00    4.7410 rain_gage            J30                 
  Sub_18                     1.52    250.00     79.00    2.3090 rain_gage            J8                  
  Sub_19                     2.15    372.00     78.00    3.4760 rain_gage            J121                
  Sub_2                      4.81    406.94     64.00    3.8880 rain_gage            J6                  
  Sub_20                    11.54    261.37     57.00    3.9380 rain_gage            J13                 
  Sub_21                     2.48    159.75     71.00    3.2870 rain_gage            J46                 
  Sub_22                     0.94    200.00     69.00    3.2890 rain_gage            J118                
  Sub_23                     2.95    250.00     63.00    3.6520 rain_gage            J103                
  Sub_24                     5.93    412.94     59.00    3.2030 rain_gage            J4                  
  Sub_25                     3.38    300.00     42.00    3.1260 rain_gage            J52                 
  Sub_26                     6.44    408.85     60.00    3.6440 rain_gage            J1                  
  Sub_27                     2.29    250.00     67.00    3.4680 rain_gage            J118                
  Sub_28                    10.61    229.01     71.00    3.1810 rain_gage            J43                 
  Sub_29                     4.46    300.00     76.00    3.1960 rain_gage            J7                  
  Sub_3                      2.79    466.00     72.00    3.7700 rain_gage            outfall             
  Sub_30                     2.64    390.64     74.00    3.0810 rain_gage            J57                 
  Sub_31                     2.90    292.33     72.00    2.7780 rain_gage            J156                
  Sub_32                     7.63    310.58     77.00    2.8180 rain_gage            J126                
  Sub_33                     3.19    461.41     83.00    3.0790 rain_gage            J63                 
  Sub_34                     2.29    250.00     65.00    2.6240 rain_gage            J5                  
  Sub_35                     2.76    217.64     70.00    2.8170 rain_gage            J3                  
  Sub_36                     1.43    235.88     50.00    2.2300 rain_gage            J70                 
  Sub_37                     1.87    251.70     78.00    3.2300 rain_gage            J71                 
  Sub_38                     4.37    354.85     73.00    3.2410 rain_gage            J23                 
  Sub_39                    11.94    244.72     56.00    2.9530 rain_gage            J147                
  Sub_4                      2.18    358.74     82.00    3.9740 rain_gage            J11                 
  Sub_5                      2.02    268.69     96.00    3.0480 rain_gage            J25                 
  Sub_6                      1.69    314.60     85.00    3.7140 rain_gage            J26                 
  Sub_7                      0.86    147.58     75.00    3.3650 rain_gage            J17                 
  Sub_8                      0.37     73.53     39.00    3.1440 rain_gage            J10                 
  Sub_9                      4.52    345.46     42.00    3.8900 rain_gage            J9                  


  *******************
  LID Control Summary
  *******************
                                   No. of        Unit        Unit      % Area    % Imperv      % Perv
  Subcatchment     LID Control      Units        Area       Width     Covered     Treated     Treated
  ---------------------------------------------------------------------------------------------------
  Sub_1            rain_garden         15      100.00        0.00        1.32        0.00       14.61
  Sub_1            rain_barrel         60        2.58        0.00        0.14       28.72        0.00
  Sub_10           rain_barrel        123        2.58        0.00        0.33       50.14        0.00
  Sub_11           rain_garden          6      100.00        0.00        2.06        0.00       23.94
  Sub_11           rain_barrel          8        2.58        0.00        0.07       14.47        0.00
  Sub_12           rain_garden         52      100.00        0.00        2.25        0.00       22.20
  Sub_12           rain_barrel        163        2.58        0.00        0.18       42.81        0.00
  Sub_13           rain_garden         28      100.00        0.00        1.47        0.00       14.82
  Sub_13           rain_barrel        167        2.58        0.00        0.23       52.08        0.00
  Sub_14           rain_garden        259      100.00        0.00        3.99        0.00       41.46
  Sub_14           rain_barrel        480        2.58        0.00        0.19       42.69        0.00
  Sub_15           rain_garden         62      100.00        0.00        3.86        0.00       47.60
  Sub_15           rain_barrel        125        2.58        0.00        0.20       39.38        0.00
  Sub_16           rain_garden          8      100.00        0.00        0.65        0.00        6.32
  Sub_16           rain_barrel         54        2.58        0.00        0.11       27.44        0.00
  Sub_17           rain_garden         52      100.00        0.00        2.41        0.00       20.48
  Sub_17           rain_barrel         91        2.58        0.00        0.11       30.87        0.00
  Sub_18           rain_garden          3      100.00        0.00        0.45        0.00       10.74
  Sub_18           rain_barrel         92        2.58        0.00        0.36       53.02        0.00
  Sub_19           rain_garden         14      100.00        0.00        1.49        0.00       34.17
  Sub_19           rain_barrel        106        2.58        0.00        0.29       43.37        0.00
  Sub_2            rain_garden         15      100.00        0.00        0.72        0.00        9.89
  Sub_2            rain_barrel        140        2.58        0.00        0.17       31.44        0.00
  Sub_20           rain_garden        122      100.00        0.00        2.43        0.00       28.21
  Sub_20           rain_barrel        361        2.58        0.00        0.19       37.80        0.00
  Sub_21           rain_garden          3      100.00        0.00        0.28        0.00        4.85
  Sub_21           rain_barrel        103        2.58        0.00        0.25       40.16        0.00
  Sub_22           rain_barrel         11        2.58        0.00        0.07       11.69        0.00
  Sub_23           rain_garden          5      100.00        0.00        0.39        0.00        5.33
  Sub_23           rain_barrel         59        2.58        0.00        0.12       21.74        0.00
  Sub_24           rain_garden         67      100.00        0.00        2.59        0.00       31.99
  Sub_24           rain_barrel        164        2.58        0.00        0.16       32.03        0.00
  Sub_25           rain_barrel         82        2.58        0.00        0.14       40.29        0.00
  Sub_26           rain_garden         26      100.00        0.00        0.93        0.00       11.50
  Sub_26           rain_barrel        224        2.58        0.00        0.21       40.07        0.00
  Sub_27           rain_garden         14      100.00        0.00        1.40        0.00       21.03
  Sub_27           rain_barrel         79        2.58        0.00        0.20       35.55        0.00
  Sub_28           rain_garden         65      100.00        0.00        1.41        0.00       23.87
  Sub_28           rain_barrel        359        2.58        0.00        0.20       33.06        0.00
  Sub_29           rain_garden         16      100.00        0.00        0.82        0.00       17.18
  Sub_29           rain_barrel        163        2.58        0.00        0.22       33.11        0.00
  Sub_3            rain_garden         10      100.00        0.00        0.82        0.00       14.43
  Sub_3            rain_barrel         41        2.58        0.00        0.09       14.15        0.00
  Sub_30           rain_garden          9      100.00        0.00        0.78        0.00       15.03
  Sub_30           rain_barrel        101        2.58        0.00        0.23       35.75        0.00
  Sub_31           rain_garden         36      100.00        0.00        2.85        0.00       50.13
  Sub_31           rain_barrel         89        2.58        0.00        0.18       29.48        0.00
  Sub_32           rain_garden         35      100.00        0.00        1.05        0.00       23.00
  Sub_32           rain_barrel        328        2.58        0.00        0.25       38.35        0.00
  Sub_33           rain_garden         10      100.00        0.00        0.72        0.00       21.52
  Sub_33           rain_barrel        125        2.58        0.00        0.23       32.35        0.00
  Sub_34           rain_garden         36      100.00        0.00        3.61        0.00       51.87
  Sub_34           rain_barrel         69        2.58        0.00        0.18       31.90        0.00
  Sub_35           rain_garden         35      100.00        0.00        2.91        0.00       48.42
  Sub_35           rain_barrel         77        2.58        0.00        0.17       27.45        0.00
  Sub_36           rain_garden         36      100.00        0.00        5.77        0.00       57.21
  Sub_36           rain_barrel         43        2.58        0.00        0.18       41.70        0.00
  Sub_37           rain_garden         17      100.00        0.00        2.08        0.00       46.98
  Sub_37           rain_barrel         62        2.58        0.00        0.20       29.26        0.00
  Sub_38           rain_garden         30      100.00        0.00        1.58        0.00       29.59
  Sub_38           rain_barrel        106        2.58        0.00        0.14       22.80        0.00
  Sub_39           rain_garden        207      100.00        0.00        3.98        0.00       45.51
  Sub_39           rain_barrel        252        2.58        0.00        0.12       25.82        0.00
  Sub_4            rain_garden          3      100.00        0.00        0.32        0.00        8.76
  Sub_4            rain_barrel         75        2.58        0.00        0.20       28.96        0.00
  Sub_5            rain_garden          3      100.00        0.00        0.34        0.00       38.08
  Sub_5            rain_barrel         46        2.58        0.00        0.14       16.36        0.00
  Sub_6            rain_garden         15      100.00        0.00        2.04        0.00       69.40
  Sub_6            rain_barrel         51        2.58        0.00        0.18       24.61        0.00
  Sub_7            rain_barrel          1        2.58        0.00        0.01        1.06        0.00
  Sub_9            rain_garden         33      100.00        0.00        1.68        0.00       14.55
  Sub_9            rain_barrel         94        2.58        0.00        0.12       33.85        0.00
  
  
  ************
  Node Summary
  ************
                                           Invert      Max.    Ponded    External
  Name                 Type                 Elev.     Depth      Area    Inflow  
  -------------------------------------------------------------------------------
  J1                   JUNCTION             -6.11     11.75       0.0
  J10                  JUNCTION             -6.30     10.18       0.0
  J103                 JUNCTION             -6.19     10.56       0.0
  J104                 JUNCTION             -6.22     10.06       0.0
  J11                  JUNCTION              0.00      4.57       0.0
  J118                 JUNCTION             -6.18     12.12       0.0
  J12                  JUNCTION             -1.49      6.08       0.0
  J121                 JUNCTION             -1.01      9.50       0.0
  J126                 JUNCTION              2.71      5.20       0.0
  J13                  JUNCTION             -6.14     12.38       0.0
  J14                  JUNCTION             -6.30     10.18       0.0
  J147                 JUNCTION              2.00      4.84       0.0
  J151                 JUNCTION             -6.29     10.14       0.0
  J156                 JUNCTION              2.00      6.65       0.0
  J17                  JUNCTION             -2.21      6.73       0.0
  J18                  JUNCTION             -6.29     10.21       0.0
  J2                   JUNCTION             -0.37      7.68       0.0
  J23                  JUNCTION              1.98      4.73       0.0
  J25                  JUNCTION             -0.96      9.42       0.0
  J26                  JUNCTION             -1.44      7.94       0.0
  J27                  JUNCTION             -2.16      4.90       0.0
  J3                   JUNCTION             -0.57      9.12       0.0
  J30                  JUNCTION             -6.26      9.78       0.0
  J32                  JUNCTION             -6.23     10.58       0.0
  J4                   JUNCTION             -1.20      7.63       0.0
  J43                  JUNCTION             -1.70      8.65       0.0
  J44                  JUNCTION             -6.18     12.57       0.0
  J46                  JUNCTION             -6.16     11.43       0.0
  J5                   JUNCTION             -1.09      8.97       0.0
  J50                  JUNCTION             -6.15     11.76       0.0
  J52                  JUNCTION             -6.13     12.49       0.0
  J57                  JUNCTION             -1.59      8.82       0.0
  J6                   JUNCTION             -2.09      5.83       0.0
  J63                  JUNCTION              1.87      4.03       0.0
  J7                   JUNCTION             -0.42      6.53       0.0
  J70                  JUNCTION              2.00      7.06       0.0
  J71                  JUNCTION              1.80      7.50       0.0
  J8                   JUNCTION             -1.37      8.64       0.0
  J89                  JUNCTION             -1.00      6.26       0.0
  J9                   JUNCTION             -2.20      4.44       0.0
  J96                  JUNCTION             -1.97      5.15       0.0
  outfall              OUTFALL              -6.30     10.00       0.0
  J155                 STORAGE              -4.00      7.18       0.0
  
  
  ************
  Link Summary
  ************
  Name             From Node        To Node          Type            Length    %Slope Roughness
  ---------------------------------------------------------------------------------------------
  C103_1           J71              J3               CONDUIT          380.3    0.6233    0.0100
  C103_3           J3               J5               CONDUIT          261.0    0.2000    0.0100
  C103_4           J5               J57              CONDUIT          252.8    0.2000    0.0100
  C108             J70              J71              CONDUIT          121.0    0.1612    0.0100
  C110             J43              J44              CONDUIT          240.0    0.1667    0.0100
  C125_1           J57              J1               CONDUIT          257.8    0.9757    0.0100
  C125_2           J1               J52              CONDUIT          254.2    0.0100    0.0100
  C147             J7               J4               CONDUIT          393.0    0.2000    0.0100
  C147_2           J4               J57              CONDUIT          194.0    0.2000    0.0100
  C147_5           J63              J7               CONDUIT          273.4    0.8371    0.0100
  C15              J26              J17              CONDUIT          386.0    0.2000    0.0100
  C152             J23              J63              CONDUIT          346.2    0.0323    0.0100
  C152_1           J147             J23              CONDUIT           56.8    0.0317    0.0100
  C158             J17              J151             CONDUIT           40.0    0.2000    0.0100
  C159             J151             J10              CONDUIT           65.0    0.0100    0.0100
  C160             J18              J151             CONDUIT           65.0    0.0100    0.0100
  C167             J104             J32              CONDUIT           77.0    0.0100    0.0100
  C168             J155             J104             CONDUIT           15.0    6.6815    0.0100
  C174             J156             J71              CONDUIT          226.0    0.0863    0.0100
  C18_1            J52              J13              CONDUIT           24.9    0.0104    0.0100
  C18_2            J13              J50              CONDUIT          142.9    0.0104    0.0100
  C2               J50              J46              CONDUIT           71.3    0.0100    0.0100
  C26              J11              J14              CONDUIT          445.6    0.2917    0.0100
  C27              J2               J89              CONDUIT          314.9    0.2000    0.0100
  C38              J96              J32              CONDUIT          130.0    0.1938    0.0100
  C47              J25              J26              CONDUIT          241.0    0.2000    0.0100
  C57              J103             J104             CONDUIT          262.0    0.0100    0.0100
  C62              J32              J30              CONDUIT          305.9    0.0100    0.0100
  C64              J89              J12              CONDUIT          237.9    0.2039    0.0100
  C64_2            J12              J6               CONDUIT          303.5    0.2000    0.0100
  C68_1            J6               J27              CONDUIT           38.4    0.1808    0.0100
  C68_2            J27              J9               CONDUIT           19.2    0.1804    0.0100
  C69              J9               J10              CONDUIT           52.0    0.2000    0.0100
  C70_1            J10              J14              CONDUIT          279.9    0.0046    0.0100
  C70_2            J14              outfall          CONDUIT            5.5    0.0183    0.0100
  C78              J30              J18              CONDUIT          281.0    0.0100    0.0100
  C84              J118             J103             CONDUIT          163.0    0.0100    0.0100
  C85              J44              J118             CONDUIT            8.0    0.0125    0.0100
  C86              J46              J44              CONDUIT          189.0    0.0100    0.0100
  C90_1            J121             J8               CONDUIT          179.1    0.2000    0.0100
  C90_2            J8               J32              CONDUIT          429.7    0.2000    0.0100
  C96              J126             J63              CONDUIT          582.0    0.1436    0.0100
  
  
  *********************
  Cross Section Summary
  *********************
                                        Full     Full     Hyd.     Max.   No. of     Full
  Conduit          Shape               Depth     Area     Rad.    Width  Barrels     Flow
  ---------------------------------------------------------------------------------------
  C103_1           CIRCULAR             1.50     1.77     0.38     1.50        1    10.78
  C103_3           CIRCULAR             1.50     1.77     0.38     1.50        1     6.11
  C103_4           CIRCULAR             1.50     1.77     0.38     1.50        1     6.11
  C108             CIRCULAR             1.25     1.23     0.31     1.25        1     3.37
  C110             CIRCULAR             1.50     1.77     0.38     1.50        1     5.57
  C125_1           CIRCULAR             3.00     7.07     0.75     3.00        1    85.65
  C125_2           RECT_CLOSED          8.00    40.00     1.54     5.00        1    79.21
  C147             CIRCULAR             2.00     3.14     0.50     2.00        1    13.15
  C147_2           CIRCULAR             2.00     3.14     0.50     2.00        1    13.15
  C147_5           CIRCULAR             2.01     3.16     0.50     2.01        1    27.16
  C15              CIRCULAR             1.75     2.41     0.44     1.75        1     9.21
  C152             CIRCULAR             1.26     1.24     0.31     1.26        1     1.53
  C152_1           CIRCULAR             1.26     1.24     0.31     1.26        1     1.51
  C158             CIRCULAR             1.75     2.41     0.44     1.75        1     9.21
  C159             RECT_CLOSED          8.00    40.00     1.54     5.00        1    79.21
  C160             RECT_CLOSED          8.00    40.00     1.54     5.00        1    79.21
  C167             RECT_CLOSED          8.00    40.00     1.54     5.00        1    79.21
  C168             CIRCULAR             2.00     3.14     0.50     2.00        1    76.02
  C174             CIRCULAR             1.00     0.79     0.25     1.00        1     1.36
  C18_1            RECT_CLOSED          8.00    40.00     1.54     5.00        1    80.82
  C18_2            RECT_CLOSED          8.00    40.00     1.54     5.00        1    80.92
  C2               RECT_CLOSED          8.00    40.00     1.54     5.00        1    79.21
  C26              CIRCULAR             1.00     0.79     0.25     1.00        1     2.50
  C27              CIRCULAR             1.25     1.23     0.31     1.25        1     3.76
  C38              CIRCULAR             1.50     1.77     0.38     1.50        1     6.01
  C47              CIRCULAR             1.75     2.41     0.44     1.75        1     9.21
  C57              RECT_CLOSED          8.00    40.00     1.54     5.00        1    79.21
  C62              RECT_CLOSED          8.00    40.00     1.54     5.00        1    79.21
  C64              CIRCULAR             2.00     3.14     0.50     2.00        1    13.28
  C64_2            CIRCULAR             2.00     3.14     0.50     2.00        1    13.15
  C68_1            CIRCULAR             2.00     3.14     0.50     2.00        1    12.51
  C68_2            CIRCULAR             2.00     3.14     0.50     2.00        1    12.49
  C69              CIRCULAR             2.00     3.14     0.50     2.00        1    13.15
  C70_1            RECT_CLOSED         10.00    50.00     1.67     5.00        1    70.50
  C70_2            RECT_CLOSED         10.00    50.00     1.67     5.00        1   141.22
  C78              RECT_CLOSED          8.00    40.00     1.54     5.00        1    79.21
  C84              RECT_CLOSED          8.00    40.00     1.54     5.00        1    79.21
  C85              RECT_CLOSED          8.00    40.00     1.54     5.00        1    88.56
  C86              RECT_CLOSED          8.00    40.00     1.54     5.00        1    79.21
  C90_1            RECT_CLOSED          1.50     1.36     0.28     0.91        1     3.91
  C90_2            RECT_CLOSED          1.50     1.36     0.28     0.91        1     3.91
  C96              CIRCULAR             1.25     1.23     0.31     1.25        1     3.18
  
  
  ****************
  Analysis Options
  ****************
  Flow Units ............... CFS
  Process Models:
    Rainfall/Runoff ........ YES
    RDII ................... NO
    Snowmelt ............... NO
    Groundwater ............ NO
    Flow Routing ........... YES
    Ponding Allowed ........ NO
    Water Quality .......... NO
  Infiltration Method ...... GREEN_AMPT
  Flow Routing Method ...... DYNWAVE
  Surcharge Method ......... EXTRAN
  Starting Date ............ 05/31/2025 12:00:00
  Ending Date .............. 06/02/2025 12:00:00
  Antecedent Dry Days ...... 0.0
  Report Time Step ......... 00:05:00
  Wet Time Step ............ 00:05:00
  Dry Time Step ............ 00:05:00
  Routing Time Step ........ 5.00 sec
  Variable Time Step ....... YES
  Maximum Trials ........... 8
  Number of Threads ........ 2
  Head Tolerance ........... 0.005000 ft
  
  
  *********************
  Control Actions Taken
  *********************

  
  **************************        Volume         Depth
  Runoff Quantity Continuity     acre-feet        inches
  **************************     ---------       -------
  Initial LID Storage ......         0.618         0.047
  Total Precipitation ......        18.677         1.433
  Evaporation Loss .........         0.000         0.000
  Infiltration Loss ........        10.959         0.841
  Surface Runoff ...........         6.099         0.468
  Final Storage ............         2.207         0.169
  Continuity Error (%) .....         0.158
  
  
  **************************        Volume        Volume
  Flow Routing Continuity        acre-feet      10^6 gal
  **************************     ---------     ---------
  Dry Weather Inflow .......         0.000         0.000
  Wet Weather Inflow .......         6.099         1.987
  Groundwater Inflow .......         0.000         0.000
  RDII Inflow ..............         0.000         0.000
  External Inflow ..........         6.747         2.199
  External Outflow .........        14.969         4.878
  Flooding Loss ............         0.015         0.005
  Evaporation Loss .........         0.000         0.000
  Exfiltration Loss ........         0.000         0.000
  Initial Stored Volume ....         1.952         0.636
  Final Stored Volume ......         5.067         1.651
  Continuity Error (%) .....       -35.496
  
  
  *************************
  Highest Continuity Errors
  *************************
  Node J26 (2.18%)
  Node J1 (1.84%)
  Node J8 (1.51%)
  Node J17 (1.30%)
  Node J52 (1.20%)
  
  
  ***************************
  Time-Step Critical Elements
  ***************************
  Link C70_2 (71.39%)
  Link C168 (20.88%)
  Link C85 (4.37%)
  Link C68_2 (2.46%)
  
  
  ********************************
  Highest Flow Instability Indexes
  ********************************
  Link C85 (11)
  Link C68_2 (10)
  Link C38 (9)
  Link C158 (8)
  Link C84 (7)
  
  
  *********************************
  Most Frequent Nonconverging Nodes
  *********************************
  Node outfall (3.71%)
  Node J2 (0.84%)
  Node J26 (0.75%)
  Node J5 (0.58%)
  Node J12 (0.43%)
  
  
  *************************
  Routing Time Step Summary
  *************************
  Minimum Time Step           :     0.50 sec
  Average Time Step           :     0.92 sec
  Maximum Time Step           :     5.00 sec
  % of Time in Steady State   :     0.00
  Average Iterations per Step :     2.49
  % of Steps Not Converging   :     3.71
  Time Step Frequencies       :
      5.000 -  3.155 sec      :     5.79 %
      3.155 -  1.991 sec      :     5.82 %
      1.991 -  1.256 sec      :     8.45 %
      1.256 -  0.792 sec      :     4.21 %
      0.792 -  0.500 sec      :    75.73 %
  
  
  ***************************
  Subcatchment Runoff Summary
  ***************************
  
  ------------------------------------------------------------------------------------------------------------------------------
                            Total      Total      Total      Total     Imperv       Perv      Total       Total     Peak  Runoff
                           Precip      Runon       Evap      Infil     Runoff     Runoff     Runoff      Runoff   Runoff   Coeff
  Subcatchment                 in         in         in         in         in         in         in    10^6 gal      CFS
  ------------------------------------------------------------------------------------------------------------------------------
  Sub_1                      1.43       0.00       0.00       0.97       0.76       0.00       0.38        0.03     0.21   0.263
  Sub_10                     1.43       0.00       0.00       0.44       1.07       0.47       0.84        0.05     0.52   0.587
  Sub_11                     1.43       0.00       0.00       0.89       0.78       0.00       0.47        0.01     0.07   0.325
  Sub_12                     1.43       0.00       0.00       1.05       0.67       0.00       0.27        0.04     0.30   0.186
  Sub_13                     1.43       0.00       0.00       1.08       0.69       0.00       0.23        0.03     0.21   0.161
  Sub_14                     1.43       0.00       0.00       1.01       0.70       0.00       0.28        0.11     0.88   0.195
  Sub_15                     1.43       0.00       0.00       0.93       0.79       0.01       0.34        0.03     0.26   0.239
  Sub_16                     1.43       0.00       0.00       0.85       0.66       0.19       0.51        0.04     0.43   0.358
  Sub_17                     1.43       0.00       0.00       1.07       0.56       0.00       0.27        0.04     0.28   0.188
  Sub_18                     1.43       0.00       0.00       0.64       1.09       0.28       0.61        0.03     0.28   0.428
  Sub_19                     1.43       0.00       0.00       0.67       1.07       0.22       0.57        0.03     0.33   0.398
  Sub_2                      1.43       0.00       0.00       0.65       0.88       0.28       0.68        0.09     0.92   0.474
  Sub_20                     1.43       0.00       0.00       0.97       0.77       0.00       0.34        0.11     0.82   0.237
  Sub_21                     1.43       0.00       0.00       0.79       0.99       0.12       0.52        0.04     0.36   0.365
  Sub_22                     1.43       0.00       0.00       0.55       0.96       0.24       0.83        0.02     0.21   0.582
  Sub_23                     1.43       0.00       0.00       0.88       0.87       0.00       0.48        0.04     0.30   0.337
  Sub_24                     1.43       0.00       0.00       0.93       0.80       0.01       0.39        0.06     0.48   0.269
  Sub_25                     1.43       0.00       0.00       0.94       0.59       0.18       0.42        0.04     0.46   0.295
  Sub_26                     1.43       0.00       0.00       0.96       0.83       0.02       0.37        0.06     0.51   0.255
  Sub_27                     1.43       0.00       0.00       0.82       0.92       0.08       0.48        0.03     0.29   0.334
  Sub_28                     1.43       0.00       0.00       0.78       0.97       0.08       0.52        0.15     1.26   0.361
  Sub_29                     1.43       0.00       0.00       0.69       1.05       0.15       0.62        0.07     0.73   0.431
  Sub_3                      1.43       0.00       0.00       0.52       1.00       0.26       0.82        0.06     0.59   0.576
  Sub_30                     1.43       0.00       0.00       0.71       1.02       0.15       0.59        0.04     0.43   0.411
  Sub_31                     1.43       0.00       0.00       0.75       0.97       0.09       0.53        0.04     0.36   0.368
  Sub_32                     1.43       0.00       0.00       0.68       1.06       0.18       0.59        0.12     1.20   0.414
  Sub_33                     1.43       0.00       0.00       0.56       1.15       0.24       0.73        0.06     0.61   0.509
  Sub_34                     1.43       0.00       0.00       0.83       0.87       0.04       0.44        0.03     0.22   0.305
  Sub_35                     1.43       0.00       0.00       0.76       0.95       0.07       0.51        0.04     0.33   0.359
  Sub_36                     1.43       0.00       0.00       1.00       0.66       0.00       0.27        0.01     0.08   0.187
  Sub_37                     1.43       0.00       0.00       0.66       1.06       0.16       0.61        0.03     0.28   0.426
  Sub_38                     1.43       0.00       0.00       0.72       1.00       0.08       0.60        0.07     0.63   0.417
  Sub_39                     1.43       0.00       0.00       0.92       0.75       0.00       0.39        0.13     0.98   0.272
  Sub_4                      1.43       0.00       0.00       0.56       1.14       0.21       0.76        0.04     0.44   0.531
  Sub_5                      1.43       0.00       0.00       0.18       1.33       0.60       1.15        0.06     0.55   0.804
  Sub_6                      1.43       0.00       0.00       0.55       1.16       0.26       0.69        0.03     0.27   0.483
  Sub_7                      1.43       0.00       0.00       0.65       1.05       0.03       0.75        0.02     0.15   0.525
  Sub_8                      1.43       0.00       0.00       1.04       0.54       0.00       0.38        0.00     0.03   0.266
  Sub_9                      1.43       0.00       0.00       0.93       0.58       0.16       0.40        0.05     0.54   0.281
  

  ***********************
  LID Performance Summary
  ***********************

  --------------------------------------------------------------------------------------------------------------------
                                         Total      Evap     Infil   Surface    Drain    Initial     Final  Continuity
                                        Inflow      Loss      Loss   Outflow   Outflow   Storage   Storage       Error
  Subcatchment      LID Control             in        in        in        in        in        in        in           %
  --------------------------------------------------------------------------------------------------------------------
  Sub_1             rain_garden           1.43      0.00      0.00      0.00      0.00      2.40      3.83        0.00
  Sub_1             rain_barrel         112.00      0.00      0.00     77.75      0.00      0.00     34.25       -0.00
  Sub_10            rain_barrel         112.75      0.00      0.00     78.50      0.00      0.00     34.25       -0.00
  Sub_11            rain_garden           1.43      0.00      0.00      0.00      0.00      2.40      3.83        0.00
  Sub_11            rain_barrel         111.16      0.00      0.00     76.91      0.00      0.00     34.25        0.00
  Sub_12            rain_garden           1.43      0.00      0.00      0.00      0.00      2.40      3.83        0.00
  Sub_12            rain_barrel         110.03      0.00      0.00     75.78      0.00      0.00     34.25       -0.00
  Sub_13            rain_garden           1.43      0.00      0.00      0.00      0.00      2.40      3.83        0.00
  Sub_13            rain_barrel         110.63      0.00      0.00     76.38      0.00      0.00     34.25        0.00
  Sub_14            rain_garden           1.43      0.00      0.00      0.00      0.00      2.40      3.83        0.00
  Sub_14            rain_barrel         108.94      0.00      0.00     74.69      0.00      0.00     34.25        0.00
  Sub_15            rain_garden           1.61      0.00      0.00      0.00      0.00      2.40      4.01        0.00
  Sub_15            rain_barrel         108.33      0.00      0.00     74.08      0.00      0.00     34.25        0.00
  Sub_16            rain_garden           3.25      0.00      0.85      0.00      0.00      2.40      4.80       -0.05
  Sub_16            rain_barrel         112.17      0.00      0.00     77.92      0.00      0.00     34.25        0.00
  Sub_17            rain_garden           1.43      0.00      0.00      0.00      0.00      2.40      3.83        0.00
  Sub_17            rain_barrel         110.52      0.00      0.00     76.27      0.00      0.00     34.25       -0.00
  Sub_18            rain_garden           8.16      0.00      3.74      0.00      0.00      2.40      6.82       -0.10
  Sub_18            rain_barrel         112.85      0.00      0.00     78.60      0.00      0.00     34.25       -0.00
  Sub_19            rain_garden           6.53      0.00      2.68      0.00      0.00      2.40      6.26       -0.10
  Sub_19            rain_barrel         111.33      0.00      0.00     77.08      0.00      0.00     34.25        0.00
  Sub_2             rain_garden           5.32      0.00      2.00      0.00      0.00      2.40      5.73       -0.09
  Sub_2             rain_barrel         112.92      0.00      0.00     78.67      0.00      0.00     34.25       -0.00
  Sub_20            rain_garden           1.46      0.00      0.00      0.00      0.00      2.40      3.86        0.00
  Sub_20            rain_barrel         110.61      0.00      0.00     76.36      0.00      0.00     34.25       -0.00
  Sub_21            rain_garden           3.45      0.00      1.06      0.00      0.00      2.40      4.80       -0.14
  Sub_21            rain_barrel         112.50      0.00      0.00     78.25      0.00      0.00     34.25        0.00
  Sub_22            rain_barrel         113.81      0.00      0.00     79.56      0.00      0.00     34.25        0.00
  Sub_23            rain_garden           1.48      0.00      0.00      0.00      0.00      2.40      3.88        0.00
  Sub_23            rain_barrel         112.24      0.00      0.00     77.99      0.00      0.00     34.25        0.00
  Sub_24            rain_garden           1.51      0.00      0.00      0.00      0.00      2.40      3.91        0.00
  Sub_24            rain_barrel         109.60      0.00      0.00     75.35      0.00      0.00     34.25        0.00
  Sub_25            rain_barrel         114.76      0.00      0.00     80.51      0.00      0.00     34.25        0.00
  Sub_26            rain_garden           1.69      0.00      0.00      0.00      0.00      2.40      4.09        0.00
  Sub_26            rain_barrel         112.74      0.00      0.00     78.49      0.00      0.00     34.25        0.00
  Sub_27            rain_garden           2.65      0.00      0.25      0.00      0.00      2.40      4.80       -0.00
  Sub_27            rain_barrel         112.23      0.00      0.00     77.98      0.00      0.00     34.25        0.00
  Sub_28            rain_garden           2.78      0.00      0.39      0.00      0.00      2.40      4.80       -0.01
  Sub_28            rain_barrel         112.50      0.00      0.00     78.25      0.00      0.00     34.25        0.00
  Sub_29            rain_garden           4.61      0.00      1.64      0.00      0.00      2.40      5.38       -0.20
  Sub_29            rain_barrel         112.31      0.00      0.00     78.06      0.00      0.00     34.25        0.00
  Sub_3             rain_garden           6.09      0.00      2.43      0.00      0.00      2.40      6.07       -0.15
  Sub_3             rain_barrel         113.44      0.00      0.00     79.19      0.00      0.00     34.25       -0.00
  Sub_30            rain_garden           4.34      0.00      1.52      0.00      0.00      2.40      5.23       -0.12
  Sub_30            rain_barrel         112.73      0.00      0.00     78.48      0.00      0.00     34.25       -0.00
  Sub_31            rain_garden           3.07      0.00      0.67      0.00      0.00      2.40      4.80       -0.07
  Sub_31            rain_barrel         110.73      0.00      0.00     76.48      0.00      0.00     34.25       -0.00
  Sub_32            rain_garden           5.30      0.00      1.97      0.00      0.00      2.40      5.74       -0.14
  Sub_32            rain_barrel         111.79      0.00      0.00     77.54      0.00      0.00     34.25        0.00
  Sub_33            rain_garden           8.53      0.00      4.01      0.00      0.00      2.40      6.93       -0.09
  Sub_33            rain_barrel         112.06      0.00      0.00     77.81      0.00      0.00     34.25        0.00
  Sub_34            rain_garden           2.06      0.00      0.00      0.00      0.00      2.40      4.46        0.00
  Sub_34            rain_barrel         109.03      0.00      0.00     74.78      0.00      0.00     34.25        0.00
  Sub_35            rain_garden           2.53      0.00      0.14      0.00      0.00      2.40      4.80       -0.09
  Sub_35            rain_barrel         110.15      0.00      0.00     75.90      0.00      0.00     34.25        0.00
  Sub_36            rain_garden           1.43      0.00      0.00      0.00      0.00      2.40      3.83        0.00
  Sub_36            rain_barrel         107.62      0.00      0.00     73.37      0.00      0.00     34.25       -0.00
  Sub_37            rain_garden           4.98      0.00      1.83      0.00      0.00      2.40      5.57       -0.21
  Sub_37            rain_barrel         111.09      0.00      0.00     76.84      0.00      0.00     34.25        0.00
  Sub_38            rain_garden           2.95      0.00      0.56      0.00      0.00      2.40      4.80       -0.16
  Sub_38            rain_barrel         111.09      0.00      0.00     76.84      0.00      0.00     34.25       -0.00
  Sub_39            rain_garden           1.43      0.00      0.00      0.00      0.00      2.40      3.83        0.00
  Sub_39            rain_barrel         108.35      0.00      0.00     74.10      0.00      0.00     34.25       -0.00
  Sub_4             rain_garden           7.32      0.00      3.18      0.00      0.00      2.40      6.55       -0.08
  Sub_4             rain_barrel         113.03      0.00      0.00     78.78      0.00      0.00     34.25       -0.00
  Sub_5             rain_garden          68.23      0.00      5.84     57.43      0.00      2.40      7.37       -0.02
  Sub_5             rain_barrel         112.96      0.00      0.00     78.71      0.00      0.00     34.25       -0.00
  Sub_6             rain_garden          10.25      0.00      4.16      1.52      0.00      2.40      6.98       -0.08
  Sub_6             rain_barrel         111.62      0.00      0.00     77.37      0.00      0.00     34.25       -0.00
  Sub_7             rain_barrel         112.58      0.00      0.00     78.33      0.00      0.00     34.25        0.00
  Sub_9             rain_garden           2.81      0.00      0.41      0.00      0.00      2.40      4.80       -0.01
  Sub_9             rain_barrel         110.65      0.00      0.00     76.40      0.00      0.00     34.25       -0.00
  
  ******************
  Node Depth Summary
  ******************
  
  ---------------------------------------------------------------------------------
                                 Average  Maximum  Maximum  Time of Max    Reported
                                   Depth    Depth      HGL   Occurrence   Max Depth
  Node                 Type         Feet     Feet     Feet  days hr:min        Feet
  ---------------------------------------------------------------------------------
  J1                   JUNCTION     6.60    11.75     5.64     1  17:58        7.65
  J10                  JUNCTION     6.80     8.12     1.82     1  18:00        7.71
  J103                 JUNCTION     6.69    10.56     4.37     1  17:57        7.69
  J104                 JUNCTION     6.72     8.56     2.34     1  17:59        7.51
  J11                  JUNCTION     0.62     4.57     4.57     1  18:18        1.24
  J118                 JUNCTION     6.67    10.43     4.25     1  17:57        7.72
  J12                  JUNCTION     1.99     6.01     4.53     1  05:59        2.81
  J121                 JUNCTION     1.51     5.17     4.16     1  17:58        2.32
  J126                 JUNCTION     0.10     0.55     3.25     0  18:45        0.55
  J13                  JUNCTION     6.63    12.38     6.25     1  17:57        7.48
  J14                  JUNCTION     6.80     7.51     1.21     1  18:00        7.50
  J147                 JUNCTION     0.17     0.83     2.83     0  18:30        0.83
  J151                 JUNCTION     6.79     8.14     1.84     1  18:00        7.69
  J156                 JUNCTION     0.07     0.37     2.37     0  18:30        0.37
  J17                  JUNCTION     2.71     6.73     4.52     0  00:07        3.58
  J18                  JUNCTION     6.79     7.99     1.70     1  18:00        7.66
  J2                   JUNCTION     0.92     7.68     7.31     0  07:23        2.85
  J23                  JUNCTION     0.18     0.84     2.82     0  18:30        0.84
  J25                  JUNCTION     1.46     9.42     8.46     1  18:00        2.22
  J26                  JUNCTION     1.94     7.94     6.50     0  07:54        2.70
  J27                  JUNCTION     2.66     4.90     2.74     0  00:07        3.49
  J3                   JUNCTION     1.10     9.12     8.56     0  00:10        2.23
  J30                  JUNCTION     6.76     7.93     1.67     1  17:58        7.58
  J32                  JUNCTION     6.72    10.58     4.36     1  17:58        7.51
  J4                   JUNCTION     1.72     7.63     6.42     0  05:41        2.67
  J43                  JUNCTION     2.20     8.65     6.95     0  00:06        3.64
  J44                  JUNCTION     6.67    12.03     5.85     1  05:57        7.72
  J46                  JUNCTION     6.65    11.43     5.27     0  00:05        7.65
  J5                   JUNCTION     1.60     8.97     7.88     0  00:09        2.71
  J50                  JUNCTION     6.64    11.76     5.61     1  17:57        7.70
  J52                  JUNCTION     6.63    12.41     6.27     1  17:57        7.56
  J57                  JUNCTION     2.10     8.82     7.22     1  05:57        3.21
  J6                   JUNCTION     2.59     5.83     3.74     0  00:07        3.40
  J63                  JUNCTION     0.09     0.48     2.35     0  18:32        0.48
  J7                   JUNCTION     0.98     6.53     6.11     0  05:47        2.01
  J70                  JUNCTION     0.03     0.13     2.13     0  18:15        0.13
  J71                  JUNCTION     0.05     0.26     2.07     0  18:31        0.26
  J8                   JUNCTION     1.87     8.64     7.27     0  00:09        2.67
  J89                  JUNCTION     1.50     6.26     5.26     0  16:45        2.39
  J9                   JUNCTION     2.70     4.44     2.24     0  00:02        3.54
  J96                  JUNCTION     2.47     5.15     3.18     0  00:06        3.25
  outfall              OUTFALL      6.80     7.50     1.20     1  06:00        7.50
  J155                 STORAGE      4.22     5.23     1.23     1  17:58        5.22
  
  
  *******************
  Node Inflow Summary
  *******************
  
  -------------------------------------------------------------------------------------------------
                                  Maximum  Maximum                  Lateral       Total        Flow
                                  Lateral    Total  Time of Max      Inflow      Inflow     Balance
                                   Inflow   Inflow   Occurrence      Volume      Volume       Error
  Node                 Type           CFS      CFS  days hr:min    10^6 gal    10^6 gal     Percent
  -------------------------------------------------------------------------------------------------
  J1                   JUNCTION      0.51   167.92     0  00:04      0.0639        1.85       1.876
  J10                  JUNCTION      0.03   234.98     0  00:01     0.00381        8.65       0.158
  J103                 JUNCTION      0.30   185.40     0  00:02      0.0386         3.8       1.145
  J104                 JUNCTION      0.00   235.13     0  00:03           0        8.16       0.427
  J11                  JUNCTION      0.44     0.44     0  18:15      0.0449      0.0493       0.101
  J118                 JUNCTION      0.49   415.61     1  05:56      0.0512        3.59      -0.120
  J12                  JUNCTION      0.82     7.38     0  00:08      0.0884       0.263       0.844
  J121                 JUNCTION      0.33     1.68     0  00:08      0.0333      0.0442       0.310
  J126                 JUNCTION      1.20     1.20     0  18:45       0.123       0.123       0.003
  J13                  JUNCTION      0.82   214.21     0  00:04       0.106        2.87       0.578
  J14                  JUNCTION      0.00   279.51     0  00:01           0        8.72      -0.072
  J147                 JUNCTION      0.98     0.98     0  18:15       0.126       0.126      -0.000
  J151                 JUNCTION      0.00   245.85     0  00:01           0        8.23       0.165
  J156                 JUNCTION      0.36     0.36     0  18:30      0.0416      0.0416      -0.001
  J17                  JUNCTION      0.15    15.52     0  00:07      0.0176       0.232       1.315
  J18                  JUNCTION      0.00   244.12     0  00:01           0        7.95       0.449
  J2                   JUNCTION      0.21     1.35     1  18:00      0.0273      0.0447       2.281
  J23                  JUNCTION      0.63     1.59     0  18:30      0.0709       0.197      -0.000
  J25                  JUNCTION      0.55     2.01     0  00:09       0.063      0.0918       0.095
  J26                  JUNCTION      0.27     5.99     0  00:08      0.0317       0.173       2.225
  J27                  JUNCTION      0.00    17.82     0  00:07           0       0.412      -0.440
  J3                   JUNCTION      0.33     3.94     0  00:09      0.0386       0.182       0.095
  J30                  JUNCTION      0.28   212.19     0  00:01      0.0362        7.76       0.778
  J32                  JUNCTION      0.43   214.23     0  00:02      0.0392        7.62       0.550
  J4                   JUNCTION      0.48    10.54     0  00:06       0.062       0.854       0.306
  J43                  JUNCTION      1.26     7.10     0  00:06       0.149       0.162       0.401
  J44                  JUNCTION      0.00   554.25     1  17:57           0        3.42       0.385
  J46                  JUNCTION      0.36   260.87     0  00:05      0.0352        3.17       0.798
  J5                   JUNCTION      0.22     5.48     0  00:06      0.0271       0.294       0.370
  J50                  JUNCTION      0.00   216.59     0  00:04           0           3       0.703
  J52                  JUNCTION      0.46   250.51     0  00:04      0.0387        2.36       1.210
  J57                  JUNCTION      0.43    22.46     0  00:05      0.0421        1.36       0.244
  J6                   JUNCTION      0.98    16.73     0  00:07       0.097       0.396       0.534
  J63                  JUNCTION      0.61     3.38     0  18:31      0.0632       0.384       0.007
  J7                   JUNCTION      0.73     5.13     0  00:08      0.0747       0.596       0.029
  J70                  JUNCTION      0.08     0.08     0  18:15      0.0104      0.0104      -0.008
  J71                  JUNCTION      0.28     0.72     0  18:30       0.031      0.0836       0.045
  J8                   JUNCTION      0.28     3.57     0  00:08      0.0252      0.0994       1.530
  J89                  JUNCTION      0.21     2.62     1  18:00      0.0268       0.121      -0.202
  J9                   JUNCTION      0.54    17.89     0  00:07      0.0493       0.464      -0.398
  J96                  JUNCTION      0.26     7.57     0  00:06      0.0343      0.0474       1.444
  outfall              OUTFALL       0.59   367.01     0  00:00      0.0626        7.09       0.000
  J155                 STORAGE       0.88    41.53     1  17:58       0.113        3.54      -0.007
  
  
  **********************
  Node Surcharge Summary
  **********************
  
  Surcharging occurs when water rises above the top of the highest conduit.
  ---------------------------------------------------------------------
                                               Max. Height   Min. Depth
                                   Hours       Above Crown    Below Rim
  Node                 Type      Surcharged           Feet         Feet
  ---------------------------------------------------------------------
  J1                   JUNCTION        0.01          3.746        0.000
  J103                 JUNCTION        0.01          2.563        0.000
  J104                 JUNCTION        0.01          0.564        1.498
  J11                  JUNCTION        9.93          3.566        0.000
  J118                 JUNCTION        0.01          2.426        1.692
  J12                  JUNCTION       19.08          4.013        0.066
  J121                 JUNCTION       19.44          3.672        4.324
  J13                  JUNCTION        0.01          4.385        0.000
  J151                 JUNCTION        0.01          0.138        2.002
  J17                  JUNCTION       35.11          4.983        0.000
  J2                   JUNCTION       12.16          6.434        0.000
  J25                  JUNCTION       13.93          7.668        0.000
  J26                  JUNCTION       22.28          6.190        0.000
  J27                  JUNCTION       29.65          2.903        0.000
  J3                   JUNCTION       10.81          7.621        0.000
  J32                  JUNCTION        0.01          2.584        0.000
  J4                   JUNCTION       13.87          5.627        0.000
  J43                  JUNCTION       30.26          7.150        0.000
  J44                  JUNCTION        0.01          4.030        0.543
  J46                  JUNCTION        0.01          3.432        0.000
  J5                   JUNCTION       20.69          7.466        0.000
  J50                  JUNCTION        0.01          3.757        0.000
  J52                  JUNCTION        0.01          4.407        0.087
  J57                  JUNCTION        0.07          5.816        0.000
  J6                   JUNCTION       28.48          3.834        0.000
  J7                   JUNCTION        0.03          4.525        0.000
  J8                   JUNCTION       24.95          7.137        0.000
  J89                  JUNCTION        9.52          4.261        0.000
  J9                   JUNCTION       30.16          2.440        0.000
  J96                  JUNCTION       35.33          3.653        0.000
  
  
  *********************
  Node Flooding Summary
  *********************
  
  Flooding refers to all water that overflows a node, whether it ponds or not.
  --------------------------------------------------------------------------
                                                             Total   Maximum
                                 Maximum   Time of Max       Flood    Ponded
                        Hours       Rate    Occurrence      Volume     Depth
  Node                 Flooded       CFS   days hr:min    10^6 gal      Feet
  --------------------------------------------------------------------------
  J1                      0.01     54.65      1  17:58       0.001     0.000
  J103                    0.01     93.42      1  17:57       0.002     0.000
  J11                     0.01      0.12      1  18:18       0.000     0.000
  J13                     0.01     11.42      1  17:57       0.000     0.000
  J17                     0.01     14.18      0  00:07       0.000     0.000
  J2                      0.01      1.26      1  18:00       0.000     0.000
  J25                     0.01      0.90      1  18:00       0.000     0.000
  J26                     0.01      0.85      0  07:54       0.000     0.000
  J27                     0.01      4.67      0  00:07       0.000     0.000
  J3                      0.01      1.80      1  06:03       0.000     0.000
  J32                     0.01     25.84      1  17:58       0.000     0.000
  J4                      0.01      2.39      1  18:04       0.000     0.000
  J43                     0.01      6.50      0  00:06       0.000     0.000
  J46                     0.01     63.88      0  00:05       0.000     0.000
  J5                      0.01      0.65      1  19:41       0.000     0.000
  J50                     0.01     64.93      1  17:57       0.001     0.000
  J57                     0.01     17.25      1  18:04       0.001     0.000
  J6                      0.01     14.66      0  00:07       0.000     0.000
  J7                      0.01      3.58      1  17:58       0.000     0.000
  J8                      0.01      1.41      0  00:09       0.000     0.000
  J89                     0.01      2.38      1  18:00       0.000     0.000
  J9                      0.01      6.46      0  00:02       0.000     0.000
  J96                     0.01      7.44      0  00:06       0.000     0.000
  
  
  **********************
  Storage Volume Summary
  **********************
  
  ------------------------------------------------------------------------------------------------
                         Average    Avg   Evap  Exfil     Maximum    Max    Time of Max    Maximum
                          Volume   Pcnt   Pcnt   Pcnt      Volume   Pcnt     Occurrence    Outflow
  Storage Unit          1000 ft   Full   Loss   Loss    1000 ft   Full    days hr:min        CFS
  ------------------------------------------------------------------------------------------------
  J155                   165.294   52.5    0.0    0.0     211.464   67.1       1  17:58      32.13
  
  
  ***********************
  Outfall Loading Summary
  ***********************
  
  -----------------------------------------------------------
                         Flow       Avg       Max       Total
                         Freq      Flow      Flow      Volume
  Outfall Node           Pcnt       CFS       CFS    10^6 gal
  -----------------------------------------------------------
  outfall               78.10     11.92    367.01       7.087
  -----------------------------------------------------------
  System                78.10     11.92    367.01       7.087
  
  
  ********************
  Link Flow Summary
  ********************
  
  -----------------------------------------------------------------------------
                                 Maximum  Time of Max   Maximum    Max/    Max/
                                  |Flow|   Occurrence   |Veloc|    Full    Full
  Link                 Type          CFS  days hr:min    ft/sec    Flow   Depth
  -----------------------------------------------------------------------------
  C103_1               CONDUIT      0.72     0  18:31      1.11    0.07    0.59
  C103_3               CONDUIT      3.94     0  00:09      3.15    0.65    1.00
  C103_4               CONDUIT      5.70     0  00:12      4.86    0.93    1.00
  C108                 CONDUIT      0.08     0  18:15      0.71    0.02    0.16
  C110                 CONDUIT      7.10     0  00:06      4.60    1.27    1.00
  C125_1               CONDUIT     29.02     0  00:11      5.48    0.34    1.00
  C125_2               CONDUIT    167.92     0  00:04      8.00    2.12    1.00
  C147                 CONDUIT      5.73     0  18:17      3.32    0.44    1.00
  C147_2               CONDUIT     10.87     0  00:12      6.50    0.83    1.00
  C147_5               CONDUIT      3.37     0  18:32      2.49    0.12    0.62
  C15                  CONDUIT      5.99     0  00:08      3.16    0.65    1.00
  C152                 CONDUIT      1.59     0  18:31      2.42    1.04    0.52
  C152_1               CONDUIT      0.98     0  18:15      1.16    0.65    0.67
  C158                 CONDUIT     15.01     0  00:07     12.73    1.63    1.00
  C159                 CONDUIT    245.85     0  00:01     11.41    3.10    1.00
  C160                 CONDUIT    244.12     0  00:01     14.17    3.08    1.00
  C167                 CONDUIT    235.13     0  00:03     11.33    2.97    0.99
  C168                 CONDUIT     41.53     1  17:58     15.34    0.55    0.81
  C174                 CONDUIT      0.36     0  18:31      1.71    0.27    0.31
  C18_1                CONDUIT    250.51     0  00:04     18.66    3.10    1.00
  C18_2                CONDUIT    214.21     0  00:04     14.14    2.65    1.00
  C2                   CONDUIT    216.59     0  00:04     13.47    2.73    1.00
  C26                  CONDUIT      0.44     0  18:17      0.56    0.18    1.00
  C27                  CONDUIT      1.35     1  18:00      1.10    0.36    1.00
  C38                  CONDUIT      7.57     0  00:06      4.31    1.26    1.00
  C47                  CONDUIT      2.01     0  00:09      1.82    0.22    1.00
  C57                  CONDUIT    185.40     0  00:02      9.62    2.34    0.99
  C62                  CONDUIT    214.23     0  00:02      9.51    2.70    0.97
  C64                  CONDUIT      2.62     1  18:00      2.13    0.20    1.00
  C64_2                CONDUIT      7.38     0  00:08      3.05    0.56    1.00
  C68_1                CONDUIT     16.73     0  00:07     10.74    1.34    1.00
  C68_2                CONDUIT     17.82     0  00:07     11.12    1.43    1.00
  C69                  CONDUIT     17.89     0  00:07      5.96    1.36    1.00
  C70_1                CONDUIT    234.98     0  00:01      9.16    3.33    0.78
  C70_2                CONDUIT    367.01     0  00:00     12.65    2.60    0.75
  C78                  CONDUIT    212.19     0  00:01      9.66    2.68    0.98
  C84                  CONDUIT    203.01     0  00:03      9.39    2.56    0.99
  C85                  CONDUIT    553.09     1  17:57     14.40    6.25    1.00
  C86                  CONDUIT    200.40     0  00:03      9.01    2.53    1.00
  C90_1                CONDUIT      1.68     0  00:08      1.96    0.43    1.00
  C90_2                CONDUIT      3.57     0  00:08      3.31    0.91    1.00
  C96                  CONDUIT      1.20     0  18:45      2.53    0.38    0.41
  
  
  ***************************
  Flow Classification Summary
  ***************************
  
  -------------------------------------------------------------------------------------
                      Adjusted    ---------- Fraction of Time in Flow Class ---------- 
                       /Actual         Up    Down  Sub   Sup   Up    Down  Norm  Inlet 
  Conduit               Length    Dry  Dry   Dry   Crit  Crit  Crit  Crit  Ltd   Ctrl  
  -------------------------------------------------------------------------------------
  C103_1                  1.00   0.00  0.13  0.00  0.87  0.00  0.00  0.00  0.99  0.00
  C103_3                  1.00   0.00  0.00  0.00  1.00  0.00  0.00  0.00  0.25  0.00
  C103_4                  1.00   0.00  0.00  0.00  1.00  0.00  0.00  0.00  0.01  0.00
  C108                    1.00   0.12  0.17  0.00  0.71  0.00  0.00  0.00  0.65  0.00
  C110                    1.00   0.00  0.00  0.00  1.00  0.00  0.00  0.00  0.00  0.00
  C125_1                  1.00   0.00  0.00  0.00  1.00  0.00  0.00  0.00  0.00  0.00
  C125_2                  1.00   0.00  0.00  0.00  1.00  0.00  0.00  0.00  0.00  0.00
  C147                    1.00   0.00  0.00  0.00  1.00  0.00  0.00  0.00  0.32  0.00
  C147_2                  1.00   0.00  0.00  0.00  1.00  0.00  0.00  0.00  0.00  0.00
  C147_5                  1.00   0.00  0.20  0.00  0.78  0.02  0.00  0.00  0.88  0.00
  C15                     1.00   0.00  0.00  0.00  1.00  0.00  0.00  0.00  0.00  0.00
  C152                    1.00   0.21  0.05  0.00  0.75  0.00  0.00  0.00  0.01  0.00
  C152_1                  1.00   0.25  0.00  0.00  0.75  0.00  0.00  0.00  0.35  0.00
  C158                    1.00   0.00  0.00  0.00  1.00  0.00  0.00  0.00  0.00  0.00
  C159                    1.00   0.00  0.00  0.00  1.00  0.00  0.00  0.00  0.00  0.00
  C160                    1.00   0.00  0.00  0.00  1.00  0.00  0.00  0.00  0.00  0.00
  C167                    1.00   0.00  0.00  0.00  1.00  0.00  0.00  0.00  0.00  0.00
  C168                    1.00   0.00  0.05  0.00  0.69  0.09  0.17  0.00  0.48  0.00
  C174                    1.00   0.12  0.13  0.00  0.75  0.00  0.00  0.00  0.19  0.00
  C18_1                   1.00   0.00  0.00  0.00  1.00  0.00  0.00  0.00  0.00  0.00
  C18_2                   1.00   0.00  0.00  0.00  1.00  0.00  0.00  0.00  0.00  0.00
  C2                      1.00   0.00  0.00  0.00  1.00  0.00  0.00  0.00  0.00  0.00
  C26                     1.00   0.00  0.05  0.00  0.95  0.00  0.00  0.00  0.40  0.00
  C27                     1.00   0.00  0.00  0.00  1.00  0.00  0.00  0.00  0.32  0.00
  C38                     1.00   0.00  0.00  0.00  1.00  0.00  0.00  0.00  0.00  0.00
  C47                     1.00   0.00  0.00  0.00  1.00  0.00  0.00  0.00  0.00  0.00
  C57                     1.00   0.00  0.00  0.00  1.00  0.00  0.00  0.00  0.00  0.00
  C62                     1.00   0.00  0.00  0.00  1.00  0.00  0.00  0.00  0.00  0.00
  C64                     1.00   0.00  0.00  0.00  1.00  0.00  0.00  0.00  0.00  0.00
  C64_2                   1.00   0.00  0.00  0.00  1.00  0.00  0.00  0.00  0.00  0.00
  C68_1                   1.00   0.00  0.00  0.00  1.00  0.00  0.00  0.00  0.00  0.00
  C68_2                   1.00   0.00  0.00  0.00  1.00  0.00  0.00  0.00  0.00  0.00
  C69                     1.00   0.00  0.00  0.00  1.00  0.00  0.00  0.00  0.00  0.00
  C70_1                   1.00   0.00  0.00  0.00  1.00  0.00  0.00  0.00  0.00  0.00
  C70_2                   1.00   0.00  0.00  0.00  1.00  0.00  0.00  0.00  0.00  0.00
  C78                     1.00   0.00  0.00  0.00  1.00  0.00  0.00  0.00  0.00  0.00
  C84                     1.00   0.00  0.00  0.00  1.00  0.00  0.00  0.00  0.00  0.00
  C85                     1.00   0.00  0.00  0.00  1.00  0.00  0.00  0.00  0.00  0.00
  C86                     1.00   0.00  0.00  0.00  1.00  0.00  0.00  0.00  0.00  0.00
  C90_1                   1.00   0.00  0.00  0.00  1.00  0.00  0.00  0.00  0.00  0.00
  C90_2                   1.00   0.00  0.00  0.00  1.00  0.00  0.00  0.00  0.00  0.00
  C96                     1.00   0.21  0.05  0.00  0.75  0.00  0.00  0.00  0.27  0.00
  
  
  *************************
  Conduit Surcharge Summary
  *************************
  
  ----------------------------------------------------------------------------
                                                           Hours        Hours 
                         --------- Hours Full --------   Above Full   Capacity
  Conduit                Both Ends  Upstream  Dnstream   Normal Flow   Limited
  ----------------------------------------------------------------------------
  C103_1                      0.01      0.01      9.75      0.01         0.01
  C103_3                     10.81     10.81     20.68      0.01         0.03
  C103_4                     20.68     20.68     28.54      0.01         0.05
  C110                       30.26     30.26     38.35      0.01         0.01
  C125_1                      0.07      0.07     47.86      0.01         0.01
  C125_2                      0.01      0.01      0.01      0.01         0.01
  C147                        0.05      0.05     13.86      0.01         0.01
  C147_2                     13.86     13.86     20.82      0.01         0.03
  C147_5                      0.01      0.01      0.03      0.01         0.01
  C15                        22.28     22.28     35.11      0.01         0.04
  C152                        0.01      0.01      0.01      0.74         0.01
  C158                       35.10     35.11     36.84      0.02         0.05
  C159                        0.01      0.01      0.01      0.12         0.01
  C160                        0.01      0.01      0.01      0.12         0.01
  C167                        0.01      0.01      0.01      0.08         0.01
  C168                        0.01      0.01      9.75      0.01         0.01
  C18_1                       0.01      0.01      0.01      0.02         0.01
  C18_2                       0.01      0.01      0.01      0.03         0.01
  C2                          0.01      0.01      0.01      0.04         0.01
  C26                         9.92      9.92     34.00      0.01         0.01
  C27                        12.15     12.15     23.30      0.01         0.07
  C38                        35.33     35.34     41.95      0.01         0.01
  C47                        13.93     13.93     22.28      0.01         0.02
  C57                         0.01      0.01      0.01      0.07         0.01
  C62                         0.01      0.01      0.01      0.09         0.01
  C64                         9.52      9.52     19.07      0.01         0.01
  C64_2                      19.07     19.07     28.48      0.01         0.02
  C68_1                      28.47     28.47     29.61      0.01         0.05
  C68_2                      29.59     29.61     30.14      0.01         0.26
  C69                        30.14     30.14     32.02      0.01         0.04
  C70_1                       0.01      0.01      0.01      0.14         0.01
  C70_2                       0.01      0.01      0.01      0.08         0.01
  C78                         0.01      0.01      0.01      0.11         0.01
  C84                         0.01      0.01      0.01      0.07         0.01
  C85                         0.01      0.01      0.01      0.05         0.01
  C86                         0.01      0.01      0.01      0.05         0.01
  C90_1                      19.43     19.44     24.95      0.01         0.01
  C90_2                      24.95     24.95     42.27      0.01         0.01
  

  Analysis begun on:  Tue Jun 17 00:17:10 2025
  Analysis ended on:  Tue Jun 17 00:17:18 2025
  Total elapsed time: 00:00:08