
  EPA STORM WATER MANAGEMENT MODEL - VERSION 5.2 (Build 5.2.4)
  PYSWMM TOOLKIT API - VERSION v1.0 (2024-04-17)
  ------------------------------------------------------------

  WARNING 04: minimum elevation drop used for Conduit C70_2
  WARNING 04: minimum elevation drop used for Conduit C85
  
  *************
  Element Count
  *************
  Number of rain gages ...... 1
  Number of subcatchments ... 39
  Number of nodes ........... 43
  Number of links ........... 42
  Number of pollutants ...... 0
  Number of land uses ....... 0
  
  
  ****************
  Raingage Summary
  ****************
                                                      Data       Recording
  Name                 Data Source                    Type       Interval 
  ------------------------------------------------------------------------
  rain_gage            rain_gage_timeseries           INTENSITY   15 min.
  
  
  ********************
  Subcatchment Summary
  ********************
  Name                       Area     Width   %Imperv    %Slope Rain Gage            Outlet              
  -----------------------------------------------------------------------------------------------------------
  Sub_1                      2.62    272.79     55.00    3.9580 rain_gage            J89                 
  Sub_10                     2.19    296.41     77.00    2.4860 rain_gage            J12                 
  Sub_11                     0.67    130.53     57.00    5.0240 rain_gage            J6                  
  Sub_12                     5.31    283.97     49.00    3.4940 rain_gage            J12                 
  Sub_13                     4.38    341.66     50.00    2.9930 rain_gage            J2                  
  Sub_14                    14.91    412.40     52.00    3.9710 rain_gage            J155                
  Sub_15                     3.68    325.75     59.00    4.8800 rain_gage            J96                 
  Sub_16                     2.81    372.64     48.00    3.5770 rain_gage            J32                 
  Sub_17                     4.94    458.98     41.00    4.7410 rain_gage            J30                 
  Sub_18                     1.52    250.00     79.00    2.3090 rain_gage            J8                  
  Sub_19                     2.15    372.00     78.00    3.4760 rain_gage            J121                
  Sub_2                      4.81    406.94     64.00    3.8880 rain_gage            J6                  
  Sub_20                    11.54    261.37     57.00    3.9380 rain_gage            J13                 
  Sub_21                     2.48    159.75     71.00    3.2870 rain_gage            J46                 
  Sub_22                     0.94    200.00     69.00    3.2890 rain_gage            J118                
  Sub_23                     2.95    250.00     63.00    3.6520 rain_gage            J103                
  Sub_24                     5.93    412.94     59.00    3.2030 rain_gage            J4                  
  Sub_25                     3.38    300.00     42.00    3.1260 rain_gage            J52                 
  Sub_26                     6.44    408.85     60.00    3.6440 rain_gage            J1                  
  Sub_27                     2.29    250.00     67.00    3.4680 rain_gage            J118                
  Sub_28                    10.61    229.01     71.00    3.1810 rain_gage            J43                 
  Sub_29                     4.46    300.00     76.00    3.1960 rain_gage            J7                  
  Sub_3                      2.79    466.00     72.00    3.7700 rain_gage            outfall             
  Sub_30                     2.64    390.64     74.00    3.0810 rain_gage            J57                 
  Sub_31                     2.90    292.33     72.00    2.7780 rain_gage            J156                
  Sub_32                     7.63    310.58     77.00    2.8180 rain_gage            J126                
  Sub_33                     3.19    461.41     83.00    3.0790 rain_gage            J63                 
  Sub_34                     2.29    250.00     65.00    2.6240 rain_gage            J5                  
  Sub_35                     2.76    217.64     70.00    2.8170 rain_gage            J3                  
  Sub_36                     1.43    235.88     50.00    2.2300 rain_gage            J70                 
  Sub_37                     1.87    251.70     78.00    3.2300 rain_gage            J71                 
  Sub_38                     4.37    354.85     73.00    3.2410 rain_gage            J23                 
  Sub_39                    11.94    244.72     56.00    2.9530 rain_gage            J147                
  Sub_4                      2.18    358.74     82.00    3.9740 rain_gage            J11                 
  Sub_5                      2.02    268.69     96.00    3.0480 rain_gage            J25                 
  Sub_6                      1.69    314.60     85.00    3.7140 rain_gage            J26                 
  Sub_7                      0.86    147.58     75.00    3.3650 rain_gage            J17                 
  Sub_8                      0.37     73.53     39.00    3.1440 rain_gage            J10                 
  Sub_9                      4.52    345.46     42.00    3.8900 rain_gage            J9                  


  *******************
  LID Control Summary
  *******************
                                   No. of        Unit        Unit      % Area    % Imperv      % Perv
  Subcatchment     LID Control      Units        Area       Width     Covered     Treated     Treated
  ---------------------------------------------------------------------------------------------------
  Sub_13           rain_garden         14       85.00        0.00        0.62        0.00       14.82
  Sub_13           rain_barrel         80        2.95        0.00        0.12       49.48        0.00
  Sub_21           rain_barrel         40        2.95        0.00        0.11       30.93        0.00
  Sub_22           rain_barrel          5        2.95        0.00        0.04       10.54        0.00
  Sub_23           rain_barrel         25        2.95        0.00        0.06       18.27        0.00
  Sub_24           rain_garden         30       85.00        0.00        0.99        0.00       28.65
  Sub_24           rain_barrel         80        2.95        0.00        0.09       30.99        0.00
  Sub_25           rain_barrel         40        2.95        0.00        0.08       38.98        0.00
  Sub_26           rain_garden         12       85.00        0.00        0.36        0.00       10.62
  Sub_26           rain_barrel        100        2.95        0.00        0.11       35.48        0.00
  Sub_27           rain_barrel         30        2.95        0.00        0.09       26.78        0.00
  Sub_28           rain_garden         30       85.00        0.00        0.55        0.00       22.03
  Sub_28           rain_barrel        150        2.95        0.00        0.10       27.40        0.00
  Sub_29           rain_barrel         80        2.95        0.00        0.12       32.23        0.00
  Sub_30           rain_barrel         50        2.95        0.00        0.13       35.10        0.00
  Sub_31           rain_garden         18       85.00        0.00        1.21        0.00       50.13
  Sub_31           rain_barrel         44        2.95        0.00        0.10       28.91        0.00
  Sub_32           rain_garden         17       85.00        0.00        0.43        0.00       22.35
  Sub_32           rain_barrel        160        2.95        0.00        0.14       37.10        0.00
  Sub_34           rain_garden         18       85.00        0.00        1.54        0.00       51.87
  Sub_34           rain_barrel         30        2.95        0.00        0.09       27.51        0.00
  Sub_35           rain_garden         15       85.00        0.00        1.06        0.00       41.50
  Sub_35           rain_barrel         38        2.95        0.00        0.09       26.87        0.00
  Sub_36           rain_garden         15       85.00        0.00        2.05        0.00       47.68
  Sub_36           rain_barrel         20        2.95        0.00        0.09       38.47        0.00
  Sub_37           rain_garden          5       85.00        0.00        0.52        0.00       27.63
  Sub_37           rain_barrel         30        2.95        0.00        0.11       28.08        0.00
  Sub_38           rain_garden         15       85.00        0.00        0.67        0.00       29.59
  Sub_38           rain_barrel         50        2.95        0.00        0.08       21.33        0.00
  Sub_39           rain_garden        100       85.00        0.00        1.63        0.00       43.97
  Sub_39           rain_barrel        126        2.95        0.00        0.07       25.61        0.00
  Sub_5            rain_barrel         20        2.95        0.00        0.07       14.11        0.00
  
  
  ************
  Node Summary
  ************
                                           Invert      Max.    Ponded    External
  Name                 Type                 Elev.     Depth      Area    Inflow  
  -------------------------------------------------------------------------------
  J1                   JUNCTION             -6.11     11.75       0.0
  J10                  JUNCTION             -6.30     10.18       0.0
  J103                 JUNCTION             -6.19     10.56       0.0
  J104                 JUNCTION             -6.22     10.06       0.0
  J11                  JUNCTION              0.00      4.57       0.0
  J118                 JUNCTION             -6.18     12.12       0.0
  J12                  JUNCTION             -1.49      6.08       0.0
  J121                 JUNCTION             -1.01      9.50       0.0
  J126                 JUNCTION              2.71      5.20       0.0
  J13                  JUNCTION             -6.14     12.38       0.0
  J14                  JUNCTION             -6.30     10.18       0.0
  J147                 JUNCTION              2.00      4.84       0.0
  J151                 JUNCTION             -6.29     10.14       0.0
  J156                 JUNCTION              2.00      6.65       0.0
  J17                  JUNCTION             -2.21      6.73       0.0
  J18                  JUNCTION             -6.29     10.21       0.0
  J2                   JUNCTION             -0.37      7.68       0.0
  J23                  JUNCTION              1.98      4.73       0.0
  J25                  JUNCTION             -0.96      9.42       0.0
  J26                  JUNCTION             -1.44      7.94       0.0
  J27                  JUNCTION             -2.16      4.90       0.0
  J3                   JUNCTION             -0.57      9.12       0.0
  J30                  JUNCTION             -6.26      9.78       0.0
  J32                  JUNCTION             -6.23     10.58       0.0
  J4                   JUNCTION             -1.20      7.63       0.0
  J43                  JUNCTION             -1.70      8.65       0.0
  J44                  JUNCTION             -6.18     12.57       0.0
  J46                  JUNCTION             -6.16     11.43       0.0
  J5                   JUNCTION             -1.09      8.97       0.0
  J50                  JUNCTION             -6.15     11.76       0.0
  J52                  JUNCTION             -6.13     12.49       0.0
  J57                  JUNCTION             -1.59      8.82       0.0
  J6                   JUNCTION             -2.09      5.83       0.0
  J63                  JUNCTION              1.87      4.03       0.0
  J7                   JUNCTION             -0.42      6.53       0.0
  J70                  JUNCTION              2.00      7.06       0.0
  J71                  JUNCTION              1.80      7.50       0.0
  J8                   JUNCTION             -1.37      8.64       0.0
  J89                  JUNCTION             -1.00      6.26       0.0
  J9                   JUNCTION             -2.20      4.44       0.0
  J96                  JUNCTION             -1.97      5.15       0.0
  outfall              OUTFALL              -6.30     10.00       0.0
  J155                 STORAGE              -4.00      7.18       0.0
  
  
  ************
  Link Summary
  ************
  Name             From Node        To Node          Type            Length    %Slope Roughness
  ---------------------------------------------------------------------------------------------
  C103_1           J71              J3               CONDUIT          380.3    0.6233    0.0100
  C103_3           J3               J5               CONDUIT          261.0    0.2000    0.0100
  C103_4           J5               J57              CONDUIT          252.8    0.2000    0.0100
  C108             J70              J71              CONDUIT          121.0    0.1612    0.0100
  C110             J43              J44              CONDUIT          240.0    0.1667    0.0100
  C125_1           J57              J1               CONDUIT          257.8    0.9757    0.0100
  C125_2           J1               J52              CONDUIT          254.2    0.0100    0.0100
  C147             J7               J4               CONDUIT          393.0    0.2000    0.0100
  C147_2           J4               J57              CONDUIT          194.0    0.2000    0.0100
  C147_5           J63              J7               CONDUIT          273.4    0.8371    0.0100
  C15              J26              J17              CONDUIT          386.0    0.2000    0.0100
  C152             J23              J63              CONDUIT          346.2    0.0323    0.0100
  C152_1           J147             J23              CONDUIT           56.8    0.0317    0.0100
  C158             J17              J151             CONDUIT           40.0    0.2000    0.0100
  C159             J151             J10              CONDUIT           65.0    0.0100    0.0100
  C160             J18              J151             CONDUIT           65.0    0.0100    0.0100
  C167             J104             J32              CONDUIT           77.0    0.0100    0.0100
  C168             J155             J104             CONDUIT           15.0    6.6815    0.0100
  C174             J156             J71              CONDUIT          226.0    0.0863    0.0100
  C18_1            J52              J13              CONDUIT           24.9    0.0104    0.0100
  C18_2            J13              J50              CONDUIT          142.9    0.0104    0.0100
  C2               J50              J46              CONDUIT           71.3    0.0100    0.0100
  C26              J11              J14              CONDUIT          445.6    0.2917    0.0100
  C27              J2               J89              CONDUIT          314.9    0.2000    0.0100
  C38              J96              J32              CONDUIT          130.0    0.1938    0.0100
  C47              J25              J26              CONDUIT          241.0    0.2000    0.0100
  C57              J103             J104             CONDUIT          262.0    0.0100    0.0100
  C62              J32              J30              CONDUIT          305.9    0.0100    0.0100
  C64              J89              J12              CONDUIT          237.9    0.2039    0.0100
  C64_2            J12              J6               CONDUIT          303.5    0.2000    0.0100
  C68_1            J6               J27              CONDUIT           38.4    0.1808    0.0100
  C68_2            J27              J9               CONDUIT           19.2    0.1804    0.0100
  C69              J9               J10              CONDUIT           52.0    0.2000    0.0100
  C70_1            J10              J14              CONDUIT          279.9    0.0046    0.0100
  C70_2            J14              outfall          CONDUIT            5.5    0.0183    0.0100
  C78              J30              J18              CONDUIT          281.0    0.0100    0.0100
  C84              J118             J103             CONDUIT          163.0    0.0100    0.0100
  C85              J44              J118             CONDUIT            8.0    0.0125    0.0100
  C86              J46              J44              CONDUIT          189.0    0.0100    0.0100
  C90_1            J121             J8               CONDUIT          179.1    0.2000    0.0100
  C90_2            J8               J32              CONDUIT          429.7    0.2000    0.0100
  C96              J126             J63              CONDUIT          582.0    0.1436    0.0100
  
  
  *********************
  Cross Section Summary
  *********************
                                        Full     Full     Hyd.     Max.   No. of     Full
  Conduit          Shape               Depth     Area     Rad.    Width  Barrels     Flow
  ---------------------------------------------------------------------------------------
  C103_1           CIRCULAR             1.50     1.77     0.38     1.50        1    10.78
  C103_3           CIRCULAR             1.50     1.77     0.38     1.50        1     6.11
  C103_4           CIRCULAR             1.50     1.77     0.38     1.50        1     6.11
  C108             CIRCULAR             1.25     1.23     0.31     1.25        1     3.37
  C110             CIRCULAR             1.50     1.77     0.38     1.50        1     5.57
  C125_1           CIRCULAR             3.00     7.07     0.75     3.00        1    85.65
  C125_2           RECT_CLOSED          8.00    40.00     1.54     5.00        1    79.21
  C147             CIRCULAR             2.00     3.14     0.50     2.00        1    13.15
  C147_2           CIRCULAR             2.00     3.14     0.50     2.00        1    13.15
  C147_5           CIRCULAR             2.01     3.16     0.50     2.01        1    27.16
  C15              CIRCULAR             1.75     2.41     0.44     1.75        1     9.21
  C152             CIRCULAR             1.26     1.24     0.31     1.26        1     1.53
  C152_1           CIRCULAR             1.26     1.24     0.31     1.26        1     1.51
  C158             CIRCULAR             1.75     2.41     0.44     1.75        1     9.21
  C159             RECT_CLOSED          8.00    40.00     1.54     5.00        1    79.21
  C160             RECT_CLOSED          8.00    40.00     1.54     5.00        1    79.21
  C167             RECT_CLOSED          8.00    40.00     1.54     5.00        1    79.21
  C168             CIRCULAR             2.00     3.14     0.50     2.00        1    76.02
  C174             CIRCULAR             1.00     0.79     0.25     1.00        1     1.36
  C18_1            RECT_CLOSED          8.00    40.00     1.54     5.00        1    80.82
  C18_2            RECT_CLOSED          8.00    40.00     1.54     5.00        1    80.92
  C2               RECT_CLOSED          8.00    40.00     1.54     5.00        1    79.21
  C26              CIRCULAR             1.00     0.79     0.25     1.00        1     2.50
  C27              CIRCULAR             1.25     1.23     0.31     1.25        1     3.76
  C38              CIRCULAR             1.50     1.77     0.38     1.50        1     6.01
  C47              CIRCULAR             1.75     2.41     0.44     1.75        1     9.21
  C57              RECT_CLOSED          8.00    40.00     1.54     5.00        1    79.21
  C62              RECT_CLOSED          8.00    40.00     1.54     5.00        1    79.21
  C64              CIRCULAR             2.00     3.14     0.50     2.00        1    13.28
  C64_2            CIRCULAR             2.00     3.14     0.50     2.00        1    13.15
  C68_1            CIRCULAR             2.00     3.14     0.50     2.00        1    12.51
  C68_2            CIRCULAR             2.00     3.14     0.50     2.00        1    12.49
  C69              CIRCULAR             2.00     3.14     0.50     2.00        1    13.15
  C70_1            RECT_CLOSED         10.00    50.00     1.67     5.00        1    70.50
  C70_2            RECT_CLOSED         10.00    50.00     1.67     5.00        1   141.22
  C78              RECT_CLOSED          8.00    40.00     1.54     5.00        1    79.21
  C84              RECT_CLOSED          8.00    40.00     1.54     5.00        1    79.21
  C85              RECT_CLOSED          8.00    40.00     1.54     5.00        1    88.56
  C86              RECT_CLOSED          8.00    40.00     1.54     5.00        1    79.21
  C90_1            RECT_CLOSED          1.50     1.36     0.28     0.91        1     3.91
  C90_2            RECT_CLOSED          1.50     1.36     0.28     0.91        1     3.91
  C96              CIRCULAR             1.25     1.23     0.31     1.25        1     3.18
  
  
  ****************
  Analysis Options
  ****************
  Flow Units ............... CFS
  Process Models:
    Rainfall/Runoff ........ YES
    RDII ................... NO
    Snowmelt ............... NO
    Groundwater ............ NO
    Flow Routing ........... YES
    Ponding Allowed ........ NO
    Water Quality .......... NO
  Infiltration Method ...... GREEN_AMPT
  Flow Routing Method ...... DYNWAVE
  Surcharge Method ......... EXTRAN
  Starting Date ............ 06/01/2025 00:00:00
  Ending Date .............. 06/01/2025 23:45:00
  Antecedent Dry Days ...... 0.0
  Report Time Step ......... 00:05:00
  Wet Time Step ............ 00:05:00
  Dry Time Step ............ 00:05:00
  Routing Time Step ........ 5.00 sec
  Variable Time Step ....... YES
  Maximum Trials ........... 8
  Number of Threads ........ 2
  Head Tolerance ........... 0.005000 ft
  
  
  **************************        Volume         Depth
  Runoff Quantity Continuity     acre-feet        inches
  **************************     ---------       -------
  Initial LID Storage ......         0.113         0.009
  Total Precipitation ......        12.744         0.977
  Evaporation Loss .........         0.000         0.000
  Infiltration Loss ........         7.275         0.558
  Surface Runoff ...........         4.861         0.373
  Final Storage ............         0.721         0.055
  Continuity Error (%) .....         0.004
  
  
  **************************        Volume        Volume
  Flow Routing Continuity        acre-feet      10^6 gal
  **************************     ---------     ---------
  Dry Weather Inflow .......         0.000         0.000
  Wet Weather Inflow .......         4.860         1.584
  Groundwater Inflow .......         0.000         0.000
  RDII Inflow ..............         0.000         0.000
  External Inflow ..........         0.000         0.000
  External Outflow .........         1.698         0.553
  Flooding Loss ............         0.000         0.000
  Evaporation Loss .........         0.000         0.000
  Exfiltration Loss ........         0.000         0.000
  Initial Stored Volume ....         1.620         0.528
  Final Stored Volume ......         4.784         1.559
  Continuity Error (%) .....        -0.027
  
  
  *************************
  Highest Continuity Errors
  *************************
  Node J30 (7.60%)
  Node J1 (4.90%)
  Node J103 (4.81%)
  Node J18 (4.64%)
  Node J14 (4.57%)
  
  
  ***************************
  Time-Step Critical Elements
  ***************************
  Link C168 (38.81%)
  Link C85 (31.53%)
  Link C70_2 (23.56%)
  
  
  ********************************
  Highest Flow Instability Indexes
  ********************************
  Link C85 (7)
  Link C167 (5)
  Link C84 (5)
  Link C57 (4)
  Link C62 (4)
  
  
  *********************************
  Most Frequent Nonconverging Nodes
  *********************************
  Node outfall (0.74%)
  Node J96 (0.36%)
  Node J8 (0.20%)
  Node J121 (0.08%)
  Node J26 (0.08%)
  
  
  *************************
  Routing Time Step Summary
  *************************
  Minimum Time Step           :     0.50 sec
  Average Time Step           :     1.48 sec
  Maximum Time Step           :     5.00 sec
  % of Time in Steady State   :     0.00
  Average Iterations per Step :     2.07
  % of Steps Not Converging   :     0.74
  Time Step Frequencies       :
      5.000 -  3.155 sec      :    10.07 %
      3.155 -  1.991 sec      :    19.33 %
      1.991 -  1.256 sec      :    16.04 %
      1.256 -  0.792 sec      :     3.36 %
      0.792 -  0.500 sec      :    51.19 %
  
  
  ***************************
  Subcatchment Runoff Summary
  ***************************
  
  ------------------------------------------------------------------------------------------------------------------------------
                            Total      Total      Total      Total     Imperv       Perv      Total       Total     Peak  Runoff
                           Precip      Runon       Evap      Infil     Runoff     Runoff     Runoff      Runoff   Runoff   Coeff
  Subcatchment                 in         in         in         in         in         in         in    10^6 gal      CFS
  ------------------------------------------------------------------------------------------------------------------------------
  Sub_1                      0.98       0.00       0.00       0.60       0.52       0.00       0.36        0.03     0.41   0.370
  Sub_10                     0.98       0.00       0.00       0.28       0.72       0.16       0.67        0.04     0.74   0.684
  Sub_11                     0.98       0.00       0.00       0.58       0.54       0.00       0.38        0.01     0.11   0.384
  Sub_12                     0.98       0.00       0.00       0.64       0.46       0.00       0.32        0.05     0.74   0.330
  Sub_13                     0.98       0.00       0.00       0.74       0.47       0.00       0.17        0.02     0.31   0.169
  Sub_14                     0.98       0.00       0.00       0.62       0.49       0.00       0.34        0.14     2.21   0.350
  Sub_15                     0.98       0.00       0.00       0.57       0.55       0.00       0.39        0.04     0.62   0.397
  Sub_16                     0.98       0.00       0.00       0.57       0.45       0.07       0.39        0.03     0.56   0.396
  Sub_17                     0.98       0.00       0.00       0.69       0.39       0.00       0.27        0.04     0.58   0.276
  Sub_18                     0.98       0.00       0.00       0.40       0.74       0.03       0.55        0.02     0.38   0.560
  Sub_19                     0.98       0.00       0.00       0.41       0.73       0.02       0.53        0.03     0.52   0.547
  Sub_2                      0.98       0.00       0.00       0.42       0.60       0.11       0.53        0.07     1.29   0.546
  Sub_20                     0.98       0.00       0.00       0.58       0.54       0.00       0.38        0.12     1.87   0.384
  Sub_21                     0.98       0.00       0.00       0.55       0.67       0.04       0.36        0.02     0.41   0.367
  Sub_22                     0.98       0.00       0.00       0.37       0.65       0.17       0.57        0.01     0.29   0.588
  Sub_23                     0.98       0.00       0.00       0.60       0.59       0.00       0.34        0.03     0.43   0.347
  Sub_24                     0.98       0.00       0.00       0.65       0.55       0.00       0.27        0.04     0.68   0.271
  Sub_25                     0.98       0.00       0.00       0.66       0.39       0.11       0.27        0.03     0.54   0.281
  Sub_26                     0.98       0.00       0.00       0.66       0.56       0.00       0.25        0.04     0.71   0.259
  Sub_27                     0.98       0.00       0.00       0.59       0.63       0.01       0.33        0.02     0.32   0.337
  Sub_28                     0.98       0.00       0.00       0.56       0.66       0.02       0.35        0.10     1.54   0.357
  Sub_29                     0.98       0.00       0.00       0.48       0.71       0.09       0.43        0.05     1.00   0.436
  Sub_3                      0.98       0.00       0.00       0.33       0.68       0.15       0.62        0.05     0.90   0.635
  Sub_30                     0.98       0.00       0.00       0.50       0.70       0.09       0.40        0.03     0.59   0.410
  Sub_31                     0.98       0.00       0.00       0.53       0.67       0.04       0.35        0.03     0.46   0.363
  Sub_32                     0.98       0.00       0.00       0.48       0.72       0.10       0.40        0.08     1.50   0.405
  Sub_33                     0.98       0.00       0.00       0.34       0.78       0.06       0.61        0.05     0.94   0.620
  Sub_34                     0.98       0.00       0.00       0.60       0.60       0.00       0.31        0.02     0.30   0.312
  Sub_35                     0.98       0.00       0.00       0.55       0.65       0.02       0.35        0.03     0.40   0.354
  Sub_36                     0.98       0.00       0.00       0.71       0.46       0.00       0.20        0.01     0.12   0.203
  Sub_37                     0.98       0.00       0.00       0.45       0.73       0.10       0.44        0.02     0.42   0.450
  Sub_38                     0.98       0.00       0.00       0.51       0.68       0.03       0.40        0.05     0.77   0.408
  Sub_39                     0.98       0.00       0.00       0.65       0.52       0.00       0.27        0.09     1.39   0.276
  Sub_4                      0.98       0.00       0.00       0.36       0.77       0.05       0.59        0.03     0.62   0.603
  Sub_5                      0.98       0.00       0.00       0.10       0.90       0.27       0.81        0.04     0.78   0.834
  Sub_6                      0.98       0.00       0.00       0.31       0.80       0.08       0.64        0.03     0.53   0.651
  Sub_7                      0.98       0.00       0.00       0.45       0.71       0.01       0.50        0.01     0.18   0.511
  Sub_8                      0.98       0.00       0.00       0.71       0.37       0.00       0.26        0.00     0.04   0.263
  Sub_9                      0.98       0.00       0.00       0.64       0.40       0.05       0.32        0.04     0.68   0.330
  

  ***********************
  LID Performance Summary
  ***********************

  --------------------------------------------------------------------------------------------------------------------
                                         Total      Evap     Infil   Surface    Drain    Initial     Final  Continuity
                                        Inflow      Loss      Loss   Outflow   Outflow   Storage   Storage       Error
  Subcatchment      LID Control             in        in        in        in        in        in        in           %
  --------------------------------------------------------------------------------------------------------------------
  Sub_13            rain_garden           0.98      0.00      0.00      0.00      0.00      2.40      3.38       -0.00
  Sub_13            rain_barrel         130.60      0.00      0.00     96.35      0.00      0.00     34.25        0.00
  Sub_21            rain_barrel         132.08      0.00      0.00     97.83      0.00      0.00     34.25        0.00
  Sub_22            rain_barrel         133.16      0.00      0.00     98.91      0.00      0.00     34.25       -0.00
  Sub_23            rain_barrel         131.84      0.00      0.00     97.59      0.00      0.00     34.25        0.00
  Sub_24            rain_garden           0.98      0.00      0.00      0.00      0.00      2.40      3.38       -0.00
  Sub_24            rain_barrel         130.37      0.00      0.00     96.12      0.00      0.00     34.25        0.00
  Sub_25            rain_barrel         134.29      0.00      0.00    100.04      0.00      0.00     34.25       -0.00
  Sub_26            rain_garden           0.98      0.00      0.00      0.00      0.00      2.40      3.38       -0.00
  Sub_26            rain_barrel         132.71      0.00      0.00     98.46      0.00      0.00     34.25        0.00
  Sub_27            rain_barrel         133.29      0.00      0.00     99.04      0.00      0.00     34.25        0.00
  Sub_28            rain_garden           1.60      0.00      0.00      0.00      0.00      2.40      4.00       -0.01
  Sub_28            rain_barrel         132.78      0.00      0.00     98.53      0.00      0.00     34.25       -0.00
  Sub_29            rain_barrel         132.53      0.00      0.00     98.28      0.00      0.00     34.25        0.00
  Sub_30            rain_barrel         133.00      0.00      0.00     98.75      0.00      0.00     34.25       -0.00
  Sub_31            rain_garden           2.82      0.00      0.43      0.00      0.00      2.40      4.80       -0.02
  Sub_31            rain_barrel         131.78      0.00      0.00     97.53      0.00      0.00     34.25       -0.00
  Sub_32            rain_garden           6.21      0.00      1.60      0.00      0.00      2.40      7.03       -0.19
  Sub_32            rain_barrel         131.64      0.00      0.00     97.39      0.00      0.00     34.25       -0.00
  Sub_34            rain_garden           0.99      0.00      0.00      0.00      0.00      2.40      3.39       -0.00
  Sub_34            rain_barrel         130.38      0.00      0.00     96.13      0.00      0.00     34.25        0.00
  Sub_35            rain_garden           1.82      0.00      0.00      0.00      0.00      2.40      4.22       -0.05
  Sub_35            rain_barrel         131.36      0.00      0.00     97.11      0.00      0.00     34.25       -0.00
  Sub_36            rain_garden           0.98      0.00      0.00      0.00      0.00      2.40      3.38       -0.00
  Sub_36            rain_barrel         130.97      0.00      0.00     96.72      0.00      0.00     34.25       -0.00
  Sub_37            rain_garden           6.29      0.00      1.64      0.00      0.00      2.40      7.06       -0.10
  Sub_37            rain_barrel         132.10      0.00      0.00     97.85      0.00      0.00     34.25        0.00
  Sub_38            rain_garden           2.44      0.00      0.05      0.00      0.00      2.40      4.80       -0.24
  Sub_38            rain_barrel         131.18      0.00      0.00     96.93      0.00      0.00     34.25        0.00
  Sub_39            rain_garden           0.98      0.00      0.00      0.00      0.00      2.40      3.38       -0.00
  Sub_39            rain_barrel         129.84      0.00      0.00     95.59      0.00      0.00     34.25       -0.00
  Sub_5             rain_barrel         132.65      0.00      0.00     98.40      0.00      0.00     34.25        0.00
  
  ******************
  Node Depth Summary
  ******************
  
  ---------------------------------------------------------------------------------
                                 Average  Maximum  Maximum  Time of Max    Reported
                                   Depth    Depth      HGL   Occurrence   Max Depth
  Node                 Type         Feet     Feet     Feet  days hr:min        Feet
  ---------------------------------------------------------------------------------
  J1                   JUNCTION     4.99     7.03     0.92     0  06:17        7.01
  J10                  JUNCTION     5.17     7.21     0.91     0  06:27        7.21
  J103                 JUNCTION     5.07     7.10     0.91     0  06:28        7.09
  J104                 JUNCTION     5.09     7.14     0.91     0  06:18        7.12
  J11                  JUNCTION     0.23     0.98     0.98     0  06:17        0.96
  J118                 JUNCTION     5.05     7.09     0.91     0  06:28        7.08
  J12                  JUNCTION     0.91     3.83     2.35     0  06:13        2.41
  J121                 JUNCTION     0.61     3.10     2.09     0  06:14        1.96
  J126                 JUNCTION     0.18     0.62     3.32     0  06:31        0.62
  J13                  JUNCTION     5.01     7.05     0.91     0  06:29        7.04
  J14                  JUNCTION     5.16     7.22     0.92     0  06:20        7.22
  J147                 JUNCTION     0.33     0.97     2.97     0  06:15        0.97
  J151                 JUNCTION     5.16     7.20     0.91     0  06:27        7.19
  J156                 JUNCTION     0.13     0.41     2.41     0  06:30        0.41
  J17                  JUNCTION     1.51     3.54     1.33     0  06:15        3.11
  J18                  JUNCTION     5.15     7.20     0.91     0  06:27        7.18
  J2                   JUNCTION     0.35     3.46     3.09     0  06:20        1.31
  J23                  JUNCTION     0.34     0.97     2.95     0  06:15        0.97
  J25                  JUNCTION     0.59     5.55     4.59     0  06:17        1.88
  J26                  JUNCTION     0.86     6.33     4.88     0  06:15        2.35
  J27                  JUNCTION     1.48     3.11     0.95     0  06:16        3.08
  J3                   JUNCTION     0.45     6.62     6.05     0  06:16        1.54
  J30                  JUNCTION     5.13     7.17     0.91     0  06:20        7.16
  J32                  JUNCTION     5.10     7.14     0.91     0  06:21        7.12
  J4                   JUNCTION     0.77     2.26     1.06     0  06:17        2.22
  J43                  JUNCTION     1.08     4.05     2.35     0  09:10        2.63
  J44                  JUNCTION     5.05     7.09     0.91     0  06:28        7.08
  J46                  JUNCTION     5.03     7.07     0.91     0  06:29        7.06
  J5                   JUNCTION     0.67     4.26     3.17     0  06:16        2.05
  J50                  JUNCTION     5.03     7.06     0.91     0  06:29        7.06
  J52                  JUNCTION     5.01     7.04     0.91     0  06:29        7.04
  J57                  JUNCTION     1.00     2.56     0.97     0  06:17        2.53
  J6                   JUNCTION     1.43     3.05     0.95     0  06:16        3.01
  J63                  JUNCTION     0.18     0.55     2.42     0  06:30        0.55
  J7                   JUNCTION     0.46     1.58     1.16     0  06:18        1.52
  J70                  JUNCTION     0.05     0.16     2.16     0  06:15        0.16
  J71                  JUNCTION     0.09     0.31     2.11     0  06:30        0.31
  J8                   JUNCTION     0.81     8.64     7.27     0  08:30        2.31
  J89                  JUNCTION     0.61     1.99     0.99     0  06:21        1.94
  J9                   JUNCTION     1.51     3.12     0.93     0  06:16        3.11
  J96                  JUNCTION     1.29     4.24     2.27     0  09:40        2.87
  outfall              OUTFALL      6.67     8.00     1.70     0  06:00        8.00
  J155                 STORAGE      3.64     4.65     0.65     0  08:22        4.65
  
  
  *******************
  Node Inflow Summary
  *******************
  
  -------------------------------------------------------------------------------------------------
                                  Maximum  Maximum                  Lateral       Total        Flow
                                  Lateral    Total  Time of Max      Inflow      Inflow     Balance
                                   Inflow   Inflow   Occurrence      Volume      Volume       Error
  Node                 Type           CFS      CFS  days hr:min    10^6 gal    10^6 gal     Percent
  -------------------------------------------------------------------------------------------------
  J1                   JUNCTION      0.71     9.79     0  06:20      0.0444       0.559       5.148
  J10                  JUNCTION      0.04    19.29     0  08:27     0.00257       0.736       4.400
  J103                 JUNCTION      0.43    15.65     0  06:19      0.0271       0.779       5.053
  J104                 JUNCTION      0.00    25.89     0  08:56           0        1.34       2.306
  J11                  JUNCTION      0.62     0.62     0  06:15      0.0348      0.0349       0.738
  J118                 JUNCTION      0.61    15.18     0  06:19      0.0352       0.749       1.874
  J12                  JUNCTION      1.48     2.68     0  06:12      0.0862       0.136      -0.000
  J121                 JUNCTION      0.52     0.59     0  06:07      0.0313       0.032      -0.004
  J126                 JUNCTION      1.50     1.50     0  06:30       0.082       0.082       0.009
  J13                  JUNCTION      1.87    13.76     0  06:20       0.118       0.659       2.265
  J14                  JUNCTION      0.00    20.34     0  08:26           0       0.556       4.790
  J147                 JUNCTION      1.39     1.39     0  06:15      0.0874      0.0874       0.000
  J151                 JUNCTION      0.00    18.74     0  08:27           0       0.713       1.681
  J156                 JUNCTION      0.46     0.46     0  06:30       0.028       0.028      -0.003
  J17                  JUNCTION      0.18     1.72     0  06:16      0.0116      0.0938       1.729
  J18                  JUNCTION      0.00    18.77     0  08:27           0        0.67       4.862
  J2                   JUNCTION      0.31     0.62     0  06:08      0.0196      0.0207      -0.136
  J23                  JUNCTION      0.77     2.11     0  06:15      0.0472       0.135       0.003
  J25                  JUNCTION      0.78     0.90     0  06:02      0.0446      0.0467      -0.197
  J26                  JUNCTION      0.53     1.62     0  06:15      0.0292      0.0786      -0.149
  J27                  JUNCTION      0.00     3.80     0  06:17           0       0.214       0.108
  J3                   JUNCTION      0.40     1.39     0  06:30      0.0259      0.0856       0.014
  J30                  JUNCTION      0.58    17.72     0  08:25      0.0362        0.69       8.223
  J32                  JUNCTION      0.56    31.47     0  08:55      0.0295       0.892       4.066
  J4                   JUNCTION      0.68     6.55     0  06:19      0.0427       0.367       0.013
  J43                  JUNCTION      1.54     1.54     0  06:15       0.101       0.102       0.577
  J44                  JUNCTION      0.00    14.96     0  06:17           0       0.728       2.636
  J46                  JUNCTION      0.41    13.96     0  06:17      0.0242       0.649       3.631
  J5                   JUNCTION      0.30     1.97     0  06:17       0.019       0.106       0.020
  J50                  JUNCTION      0.00    13.90     0  06:20           0       0.646       2.981
  J52                  JUNCTION      0.54    11.59     0  06:20      0.0252       0.563       4.506
  J57                  JUNCTION      0.59     8.90     0  06:19      0.0287       0.505       0.167
  J6                   JUNCTION      1.40     3.80     0  06:17      0.0765       0.212       0.481
  J63                  JUNCTION      0.94     4.48     0  06:30      0.0525       0.269      -0.032
  J7                   JUNCTION      1.00     5.47     0  06:30      0.0516       0.322      -0.033
  J70                  JUNCTION      0.12     0.12     0  06:15      0.0077      0.0077      -0.020
  J71                  JUNCTION      0.42     0.99     0  06:30      0.0223       0.058      -0.151
  J8                   JUNCTION      0.38     1.21     0  06:11      0.0225      0.0553       1.373
  J89                  JUNCTION      0.41     1.49     0  06:02      0.0257      0.0497       0.001
  J9                   JUNCTION      0.68     4.41     0  06:17      0.0396       0.253       0.184
  J96                  JUNCTION      0.62     0.62     0  06:15      0.0389      0.0424       0.471
  outfall              OUTFALL       0.90    20.58     0  08:26      0.0471       0.553       0.000
  J155                 STORAGE       2.21    25.21     0  06:18       0.139        1.38      -0.002
  
  
  **********************
  Node Surcharge Summary
  **********************
  
  Surcharging occurs when water rises above the top of the highest conduit.
  ---------------------------------------------------------------------
                                               Max. Height   Min. Depth
                                   Hours       Above Crown    Below Rim
  Node                 Type      Surcharged           Feet         Feet
  ---------------------------------------------------------------------
  J12                  JUNCTION        2.24          1.832        2.247
  J121                 JUNCTION        2.33          1.598        6.398
  J17                  JUNCTION        3.69          1.793        3.190
  J2                   JUNCTION        0.49          2.207        4.227
  J25                  JUNCTION        0.74          3.803        3.865
  J26                  JUNCTION        2.57          4.575        1.615
  J27                  JUNCTION        3.25          1.108        1.795
  J3                   JUNCTION        0.41          5.116        2.505
  J4                   JUNCTION        0.84          0.260        5.367
  J43                  JUNCTION        3.31          2.552        4.598
  J5                   JUNCTION        2.46          2.757        4.709
  J6                   JUNCTION        3.16          1.045        2.789
  J8                   JUNCTION        2.82          7.137        0.000
  J9                   JUNCTION        3.31          1.124        1.316
  J96                  JUNCTION        3.67          2.739        0.914
  
  
  *********************
  Node Flooding Summary
  *********************
  
  Flooding refers to all water that overflows a node, whether it ponds or not.
  --------------------------------------------------------------------------
                                                             Total   Maximum
                                 Maximum   Time of Max       Flood    Ponded
                        Hours       Rate    Occurrence      Volume     Depth
  Node                 Flooded       CFS   days hr:min    10^6 gal      Feet
  --------------------------------------------------------------------------
  J8                      0.01      0.87      0  08:30       0.000     0.000
  
  
  **********************
  Storage Volume Summary
  **********************
  
  ------------------------------------------------------------------------------------------------
                         Average    Avg   Evap  Exfil     Maximum    Max    Time of Max    Maximum
                          Volume   Pcnt   Pcnt   Pcnt      Volume   Pcnt     Occurrence    Outflow
  Storage Unit          1000 ft³   Full   Loss   Loss    1000 ft³   Full    days hr:min        CFS
  ------------------------------------------------------------------------------------------------
  J155                   139.213   44.2    0.0    0.0     183.670   58.3       0  08:22      10.13
  
  
  ***********************
  Outfall Loading Summary
  ***********************
  
  -----------------------------------------------------------
                         Flow       Avg       Max       Total
                         Freq      Flow      Flow      Volume
  Outfall Node           Pcnt       CFS       CFS    10^6 gal
  -----------------------------------------------------------
  outfall               68.55      3.15     20.58       0.553
  -----------------------------------------------------------
  System                68.55      3.15     20.58       0.553
  
  
  ********************
  Link Flow Summary
  ********************
  
  -----------------------------------------------------------------------------
                                 Maximum  Time of Max   Maximum    Max/    Max/
                                  |Flow|   Occurrence   |Veloc|    Full    Full
  Link                 Type          CFS  days hr:min    ft/sec    Flow   Depth
  -----------------------------------------------------------------------------
  C103_1               CONDUIT      0.99     0  06:30      2.55    0.09    0.60
  C103_3               CONDUIT      1.67     0  06:17      2.51    0.27    1.00
  C103_4               CONDUIT      1.97     0  06:17      2.62    0.32    1.00
  C108                 CONDUIT      0.12     0  06:15      0.83    0.04    0.19
  C110                 CONDUIT      1.61     0  06:04      2.86    0.29    1.00
  C125_1               CONDUIT      9.11     0  06:20      6.68    0.11    0.93
  C125_2               CONDUIT     11.14     0  06:20      0.84    0.14    0.88
  C147                 CONDUIT      5.90     0  06:19      3.75    0.45    0.89
  C147_2               CONDUIT      6.51     0  06:19      5.26    0.50    1.00
  C147_5               CONDUIT      4.48     0  06:30      4.33    0.16    0.53
  C15                  CONDUIT      1.54     0  06:16      2.49    0.17    1.00
  C152                 CONDUIT      2.11     0  06:15      2.74    1.38    0.61
  C152_1               CONDUIT      1.39     0  06:15      1.35    0.92    0.77
  C158                 CONDUIT      1.72     0  06:16      2.90    0.19    1.00
  C159                 CONDUIT     18.71     0  08:27      0.55    0.24    0.90
  C160                 CONDUIT     18.74     0  08:27      0.55    0.24    0.90
  C167                 CONDUIT     31.10     0  08:55      0.97    0.39    0.89
  C168                 CONDUIT     23.05     0  06:18     10.40    0.30    0.67
  C174                 CONDUIT      0.46     0  06:30      1.82    0.34    0.36
  C18_1                CONDUIT     11.94     0  06:20      0.76    0.15    0.88
  C18_2                CONDUIT     13.90     0  06:20      0.91    0.17    0.88
  C2                   CONDUIT     13.59     0  06:17      0.81    0.17    0.88
  C26                  CONDUIT      0.74     0  06:18      2.54    0.30    0.99
  C27                  CONDUIT      0.45     0  06:17      1.52    0.12    1.00
  C38                  CONDUIT      0.70     0  05:56      2.32    0.12    1.00
  C47                  CONDUIT      1.09     0  06:15      1.94    0.12    1.00
  C57                  CONDUIT     15.34     0  06:21      0.47    0.19    0.89
  C62                  CONDUIT     17.68     0  08:25      0.52    0.22    0.89
  C64                  CONDUIT      1.21     0  06:12      1.46    0.09    1.00
  C64_2                CONDUIT      2.43     0  06:17      2.52    0.18    1.00
  C68_1                CONDUIT      3.80     0  06:17      3.18    0.30    1.00
  C68_2                CONDUIT      3.80     0  06:17      3.15    0.30    1.00
  C69                  CONDUIT      4.41     0  06:17      3.78    0.34    1.00
  C70_1                CONDUIT     20.28     0  08:26      0.59    0.29    0.72
  C70_2                CONDUIT     20.54     0  08:26      0.60    0.15    0.76
  C78                  CONDUIT     18.77     0  08:27      0.55    0.24    0.90
  C84                  CONDUIT     15.23     0  06:19      0.72    0.19    0.89
  C85                  CONDUIT     14.59     0  06:19      0.73    0.16    0.89
  C86                  CONDUIT     13.44     0  06:17      0.72    0.17    0.88
  C90_1                CONDUIT      0.86     0  06:11      1.63    0.22    1.00
  C90_2                CONDUIT      0.99     0  06:08      2.49    0.25    1.00
  C96                  CONDUIT      1.49     0  06:31      2.65    0.47    0.47
  
  
  ***************************
  Flow Classification Summary
  ***************************
  
  -------------------------------------------------------------------------------------
                      Adjusted    ---------- Fraction of Time in Flow Class ---------- 
                       /Actual         Up    Down  Sub   Sup   Up    Down  Norm  Inlet 
  Conduit               Length    Dry  Dry   Dry   Crit  Crit  Crit  Crit  Ltd   Ctrl  
  -------------------------------------------------------------------------------------
  C103_1                  1.00   0.13  0.00  0.00  0.87  0.00  0.00  0.00  0.87  0.00
  C103_3                  1.00   0.13  0.00  0.00  0.87  0.00  0.00  0.00  0.71  0.00
  C103_4                  1.00   0.13  0.00  0.00  0.87  0.00  0.00  0.00  0.63  0.00
  C108                    1.00   0.13  0.00  0.00  0.87  0.00  0.00  0.00  0.64  0.00
  C110                    1.00   0.13  0.00  0.00  0.76  0.00  0.00  0.11  0.00  0.00
  C125_1                  1.00   0.13  0.00  0.00  0.77  0.00  0.00  0.10  0.02  0.00
  C125_2                  1.00   0.13  0.00  0.00  0.87  0.00  0.00  0.00  0.00  0.00
  C147                    1.00   0.13  0.00  0.00  0.87  0.00  0.00  0.00  0.70  0.00
  C147_2                  1.00   0.13  0.00  0.00  0.81  0.06  0.00  0.00  0.55  0.00
  C147_5                  1.00   0.13  0.00  0.00  0.80  0.07  0.00  0.00  0.87  0.00
  C15                     1.00   0.13  0.00  0.00  0.87  0.00  0.00  0.00  0.21  0.00
  C152                    1.00   0.13  0.00  0.00  0.87  0.00  0.00  0.00  0.00  0.00
  C152_1                  1.00   0.13  0.00  0.00  0.87  0.00  0.00  0.00  0.27  0.00
  C158                    1.00   0.13  0.00  0.00  0.76  0.00  0.00  0.11  0.00  0.00
  C159                    1.00   0.13  0.01  0.00  0.86  0.00  0.00  0.00  0.01  0.00
  C160                    1.00   0.14  0.02  0.00  0.85  0.00  0.00  0.00  0.00  0.00
  C167                    1.00   0.13  0.03  0.00  0.84  0.00  0.00  0.00  0.00  0.00
  C168                    1.00   0.25  0.01  0.00  0.06  0.05  0.06  0.57  0.05  0.00
  C174                    1.00   0.13  0.00  0.00  0.87  0.00  0.00  0.00  0.00  0.00
  C18_1                   1.00   0.13  0.01  0.00  0.87  0.00  0.00  0.00  0.02  0.00
  C18_2                   1.00   0.13  0.00  0.00  0.87  0.00  0.00  0.00  0.00  0.00
  C2                      1.00   0.13  0.02  0.00  0.85  0.00  0.00  0.00  0.02  0.00
  C26                     1.00   0.13  0.00  0.00  0.26  0.00  0.00  0.62  0.16  0.00
  C27                     1.00   0.13  0.00  0.00  0.87  0.00  0.00  0.00  0.26  0.00
  C38                     1.00   0.13  0.00  0.00  0.76  0.00  0.00  0.11  0.00  0.00
  C47                     1.00   0.13  0.00  0.00  0.87  0.00  0.00  0.00  0.69  0.00
  C57                     1.00   0.13  0.00  0.00  0.87  0.00  0.00  0.00  0.00  0.00
  C62                     1.00   0.13  0.00  0.00  0.87  0.00  0.00  0.00  0.00  0.00
  C64                     1.00   0.13  0.00  0.00  0.87  0.00  0.00  0.00  0.69  0.00
  C64_2                   1.00   0.13  0.00  0.00  0.87  0.00  0.00  0.00  0.18  0.00
  C68_1                   1.00   0.13  0.00  0.00  0.87  0.00  0.00  0.00  0.00  0.00
  C68_2                   1.00   0.13  0.00  0.00  0.87  0.00  0.00  0.00  0.04  0.00
  C69                     1.00   0.13  0.00  0.00  0.76  0.00  0.00  0.12  0.00  0.00
  C70_1                   1.00   0.13  0.02  0.00  0.85  0.00  0.00  0.00  0.00  0.00
  C70_2                   1.00   0.00  0.00  0.00  1.00  0.00  0.00  0.00  0.00  0.00
  C78                     1.00   0.13  0.00  0.00  0.87  0.00  0.00  0.00  0.01  0.00
  C84                     1.00   0.13  0.00  0.00  0.87  0.00  0.00  0.00  0.00  0.00
  C85                     1.00   0.13  0.01  0.00  0.86  0.00  0.00  0.00  0.00  0.00
  C86                     1.00   0.13  0.00  0.00  0.87  0.00  0.00  0.00  0.02  0.00
  C90_1                   1.00   0.13  0.00  0.00  0.87  0.00  0.00  0.00  0.64  0.00
  C90_2                   1.00   0.13  0.00  0.00  0.76  0.00  0.00  0.11  0.22  0.00
  C96                     1.00   0.13  0.00  0.00  0.87  0.00  0.00  0.00  0.35  0.00
  
  
  *************************
  Conduit Surcharge Summary
  *************************
  
  ----------------------------------------------------------------------------
                                                           Hours        Hours 
                         --------- Hours Full --------   Above Full   Capacity
  Conduit                Both Ends  Upstream  Dnstream   Normal Flow   Limited
  ----------------------------------------------------------------------------
  C103_1                      0.01      0.01      0.41      0.01         0.01
  C103_3                      0.41      0.41      2.46      0.01         0.01
  C103_4                      2.46      2.46      3.12      0.01         0.01
  C110                        3.31      3.31      3.90      0.01         0.01
  C125_1                      0.01      0.01      4.76      0.01         0.01
  C147                        0.01      0.01      0.84      0.01         0.01
  C147_2                      0.84      0.84      2.49      0.01         0.01
  C15                         2.57      2.57      3.69      0.01         0.01
  C152                        0.01      0.01      0.01      1.61         0.01
  C158                        3.69      3.69      3.81      0.01         0.01
  C26                         0.01      0.01      3.45      0.01         0.01
  C27                         0.49      0.49      2.69      0.01         0.01
  C38                         3.67      3.67      4.08      0.01         0.01
  C47                         0.74      0.74      2.57      0.01         0.01
  C64                         0.01      0.01      2.24      0.01         0.01
  C64_2                       2.24      2.24      3.16      0.01         0.01
  C68_1                       3.16      3.16      3.25      0.01         0.01
  C68_2                       3.25      3.25      3.31      0.01         0.01
  C69                         3.31      3.31      3.44      0.01         0.01
  C90_1                       2.33      2.33      2.82      0.01         0.01
  C90_2                       2.82      2.82      4.10      0.01         0.01
  

  Analysis begun on:  Wed Jun 11 04:02:31 2025
  Analysis ended on:  Wed Jun 11 04:02:34 2025
  Total elapsed time: 00:00:03