
  EPA STORM WATER MANAGEMENT MODEL - VERSION 5.2 (Build 5.2.4)
  PYSWMM TOOLKIT API - VERSION v1.0 (2024-04-17)
  ------------------------------------------------------------

  WARNING 04: minimum elevation drop used for Conduit C70_2
  WARNING 04: minimum elevation drop used for Conduit C85
  
  *************
  Element Count
  *************
  Number of rain gages ...... 1
  Number of subcatchments ... 39
  Number of nodes ........... 43
  Number of links ........... 42
  Number of pollutants ...... 0
  Number of land uses ....... 0
  
  
  ****************
  Raingage Summary
  ****************
                                                      Data       Recording
  Name                 Data Source                    Type       Interval 
  ------------------------------------------------------------------------
  rain_gage            rain_gage_timeseries           INTENSITY   15 min.
  
  
  ********************
  Subcatchment Summary
  ********************
  Name                       Area     Width   %Imperv    %Slope Rain Gage            Outlet              
  -----------------------------------------------------------------------------------------------------------
  Sub_1                      2.62    272.79     55.00    3.9580 rain_gage            J89                 
  Sub_10                     2.19    296.41     77.00    2.4860 rain_gage            J12                 
  Sub_11                     0.67    130.53     57.00    5.0240 rain_gage            J6                  
  Sub_12                     5.31    283.97     49.00    3.4940 rain_gage            J12                 
  Sub_13                     4.38    341.66     50.00    2.9930 rain_gage            J2                  
  Sub_14                    14.91    412.40     52.00    3.9710 rain_gage            J155                
  Sub_15                     3.68    325.75     59.00    4.8800 rain_gage            J96                 
  Sub_16                     2.81    372.64     48.00    3.5770 rain_gage            J32                 
  Sub_17                     4.94    458.98     41.00    4.7410 rain_gage            J30                 
  Sub_18                     1.52    250.00     79.00    2.3090 rain_gage            J8                  
  Sub_19                     2.15    372.00     78.00    3.4760 rain_gage            J121                
  Sub_2                      4.81    406.94     64.00    3.8880 rain_gage            J6                  
  Sub_20                    11.54    261.37     57.00    3.9380 rain_gage            J13                 
  Sub_21                     2.48    159.75     71.00    3.2870 rain_gage            J46                 
  Sub_22                     0.94    200.00     69.00    3.2890 rain_gage            J118                
  Sub_23                     2.95    250.00     63.00    3.6520 rain_gage            J103                
  Sub_24                     5.93    412.94     59.00    3.2030 rain_gage            J4                  
  Sub_25                     3.38    300.00     42.00    3.1260 rain_gage            J52                 
  Sub_26                     6.44    408.85     60.00    3.6440 rain_gage            J1                  
  Sub_27                     2.29    250.00     67.00    3.4680 rain_gage            J118                
  Sub_28                    10.61    229.01     71.00    3.1810 rain_gage            J43                 
  Sub_29                     4.46    300.00     76.00    3.1960 rain_gage            J7                  
  Sub_3                      2.79    466.00     72.00    3.7700 rain_gage            outfall             
  Sub_30                     2.64    390.64     74.00    3.0810 rain_gage            J57                 
  Sub_31                     2.90    292.33     72.00    2.7780 rain_gage            J156                
  Sub_32                     7.63    310.58     77.00    2.8180 rain_gage            J126                
  Sub_33                     3.19    461.41     83.00    3.0790 rain_gage            J63                 
  Sub_34                     2.29    250.00     65.00    2.6240 rain_gage            J5                  
  Sub_35                     2.76    217.64     70.00    2.8170 rain_gage            J3                  
  Sub_36                     1.43    235.88     50.00    2.2300 rain_gage            J70                 
  Sub_37                     1.87    251.70     78.00    3.2300 rain_gage            J71                 
  Sub_38                     4.37    354.85     73.00    3.2410 rain_gage            J23                 
  Sub_39                    11.94    244.72     56.00    2.9530 rain_gage            J147                
  Sub_4                      2.18    358.74     82.00    3.9740 rain_gage            J11                 
  Sub_5                      2.02    268.69     96.00    3.0480 rain_gage            J25                 
  Sub_6                      1.69    314.60     85.00    3.7140 rain_gage            J26                 
  Sub_7                      0.86    147.58     75.00    3.3650 rain_gage            J17                 
  Sub_8                      0.37     73.53     39.00    3.1440 rain_gage            J10                 
  Sub_9                      4.52    345.46     42.00    3.8900 rain_gage            J9                  


  *******************
  LID Control Summary
  *******************
                                   No. of        Unit        Unit      % Area    % Imperv      % Perv
  Subcatchment     LID Control      Units        Area       Width     Covered     Treated     Treated
  ---------------------------------------------------------------------------------------------------
  Sub_1            rain_garden         15      100.00        0.00        1.32        0.00       14.61
  Sub_1            rain_barrel         60        2.95        0.00        0.16       28.72        0.00
  Sub_10           rain_barrel        123        2.95        0.00        0.38       50.14        0.00
  Sub_11           rain_garden          6      100.00        0.00        2.06        0.00       23.94
  Sub_11           rain_barrel          8        2.95        0.00        0.08       14.47        0.00
  Sub_12           rain_garden         52      100.00        0.00        2.25        0.00       22.20
  Sub_12           rain_barrel        163        2.95        0.00        0.21       42.81        0.00
  Sub_13           rain_garden         28      100.00        0.00        1.47        0.00       14.82
  Sub_13           rain_barrel        167        2.95        0.00        0.26       52.08        0.00
  Sub_14           rain_garden        259      100.00        0.00        3.99        0.00       41.46
  Sub_14           rain_barrel        480        2.95        0.00        0.22       42.69        0.00
  Sub_15           rain_garden         62      100.00        0.00        3.86        0.00       47.60
  Sub_15           rain_barrel        125        2.95        0.00        0.23       39.38        0.00
  Sub_16           rain_garden          8      100.00        0.00        0.65        0.00        6.32
  Sub_16           rain_barrel         54        2.95        0.00        0.13       27.44        0.00
  Sub_17           rain_garden         52      100.00        0.00        2.41        0.00       20.48
  Sub_17           rain_barrel         91        2.95        0.00        0.12       30.87        0.00
  Sub_18           rain_garden          3      100.00        0.00        0.45        0.00       10.74
  Sub_18           rain_barrel         92        2.95        0.00        0.41       53.02        0.00
  Sub_19           rain_garden         14      100.00        0.00        1.49        0.00       34.17
  Sub_19           rain_barrel        106        2.95        0.00        0.33       43.37        0.00
  Sub_2            rain_garden         15      100.00        0.00        0.72        0.00        9.89
  Sub_2            rain_barrel        140        2.95        0.00        0.20       31.44        0.00
  Sub_20           rain_garden        122      100.00        0.00        2.43        0.00       28.21
  Sub_20           rain_barrel        361        2.95        0.00        0.21       37.80        0.00
  Sub_21           rain_garden          3      100.00        0.00        0.28        0.00        4.85
  Sub_21           rain_barrel        103        2.95        0.00        0.28       40.16        0.00
  Sub_22           rain_barrel         11        2.95        0.00        0.08       11.69        0.00
  Sub_23           rain_garden          5      100.00        0.00        0.39        0.00        5.33
  Sub_23           rain_barrel         59        2.95        0.00        0.14       21.74        0.00
  Sub_24           rain_garden         67      100.00        0.00        2.59        0.00       31.99
  Sub_24           rain_barrel        164        2.95        0.00        0.19       32.03        0.00
  Sub_25           rain_barrel         82        2.95        0.00        0.16       40.29        0.00
  Sub_26           rain_garden         26      100.00        0.00        0.93        0.00       11.50
  Sub_26           rain_barrel        224        2.95        0.00        0.24       40.07        0.00
  Sub_27           rain_garden         14      100.00        0.00        1.40        0.00       21.03
  Sub_27           rain_barrel         79        2.95        0.00        0.23       35.55        0.00
  Sub_28           rain_garden         65      100.00        0.00        1.41        0.00       23.87
  Sub_28           rain_barrel        359        2.95        0.00        0.23       33.06        0.00
  Sub_29           rain_garden         16      100.00        0.00        0.82        0.00       17.18
  Sub_29           rain_barrel        163        2.95        0.00        0.25       33.11        0.00
  Sub_3            rain_garden         10      100.00        0.00        0.82        0.00       14.43
  Sub_3            rain_barrel         41        2.95        0.00        0.10       14.15        0.00
  Sub_30           rain_garden          9      100.00        0.00        0.78        0.00       15.03
  Sub_30           rain_barrel        101        2.95        0.00        0.26       35.75        0.00
  Sub_31           rain_garden         36      100.00        0.00        2.85        0.00       50.13
  Sub_31           rain_barrel         89        2.95        0.00        0.21       29.48        0.00
  Sub_32           rain_garden         35      100.00        0.00        1.05        0.00       23.00
  Sub_32           rain_barrel        328        2.95        0.00        0.29       38.35        0.00
  Sub_33           rain_garden         10      100.00        0.00        0.72        0.00       21.52
  Sub_33           rain_barrel        125        2.95        0.00        0.27       32.35        0.00
  Sub_34           rain_garden         36      100.00        0.00        3.61        0.00       51.87
  Sub_34           rain_barrel         69        2.95        0.00        0.20       31.90        0.00
  Sub_35           rain_garden         35      100.00        0.00        2.91        0.00       48.42
  Sub_35           rain_barrel         77        2.95        0.00        0.19       27.45        0.00
  Sub_36           rain_garden         36      100.00        0.00        5.77        0.00       57.21
  Sub_36           rain_barrel         43        2.95        0.00        0.20       41.70        0.00
  Sub_37           rain_garden         17      100.00        0.00        2.08        0.00       46.98
  Sub_37           rain_barrel         62        2.95        0.00        0.22       29.26        0.00
  Sub_38           rain_garden         30      100.00        0.00        1.58        0.00       29.59
  Sub_38           rain_barrel        106        2.95        0.00        0.16       22.80        0.00
  Sub_39           rain_garden        207      100.00        0.00        3.98        0.00       45.51
  Sub_39           rain_barrel        252        2.95        0.00        0.14       25.82        0.00
  Sub_4            rain_garden          3      100.00        0.00        0.32        0.00        8.76
  Sub_4            rain_barrel         75        2.95        0.00        0.23       28.96        0.00
  Sub_5            rain_garden          3      100.00        0.00        0.34        0.00       38.08
  Sub_5            rain_barrel         46        2.95        0.00        0.15       16.36        0.00
  Sub_6            rain_garden         15      100.00        0.00        2.04        0.00       69.40
  Sub_6            rain_barrel         51        2.95        0.00        0.20       24.61        0.00
  Sub_7            rain_barrel          1        2.95        0.00        0.01        1.06        0.00
  Sub_9            rain_garden         33      100.00        0.00        1.68        0.00       14.55
  Sub_9            rain_barrel         94        2.95        0.00        0.14       33.85        0.00
  
  
  ************
  Node Summary
  ************
                                           Invert      Max.    Ponded    External
  Name                 Type                 Elev.     Depth      Area    Inflow  
  -------------------------------------------------------------------------------
  J1                   JUNCTION             -6.11     11.75       0.0
  J10                  JUNCTION             -6.30     10.18       0.0
  J103                 JUNCTION             -6.19     10.56       0.0
  J104                 JUNCTION             -6.22     10.06       0.0
  J11                  JUNCTION              0.00      4.57       0.0
  J118                 JUNCTION             -6.18     12.12       0.0
  J12                  JUNCTION             -1.49      6.08       0.0
  J121                 JUNCTION             -1.01      9.50       0.0
  J126                 JUNCTION              2.71      5.20       0.0
  J13                  JUNCTION             -6.14     12.38       0.0
  J14                  JUNCTION             -6.30     10.18       0.0
  J147                 JUNCTION              2.00      4.84       0.0
  J151                 JUNCTION             -6.29     10.14       0.0
  J156                 JUNCTION              2.00      6.65       0.0
  J17                  JUNCTION             -2.21      6.73       0.0
  J18                  JUNCTION             -6.29     10.21       0.0
  J2                   JUNCTION             -0.37      7.68       0.0
  J23                  JUNCTION              1.98      4.73       0.0
  J25                  JUNCTION             -0.96      9.42       0.0
  J26                  JUNCTION             -1.44      7.94       0.0
  J27                  JUNCTION             -2.16      4.90       0.0
  J3                   JUNCTION             -0.57      9.12       0.0
  J30                  JUNCTION             -6.26      9.78       0.0
  J32                  JUNCTION             -6.23     10.58       0.0
  J4                   JUNCTION             -1.20      7.63       0.0
  J43                  JUNCTION             -1.70      8.65       0.0
  J44                  JUNCTION             -6.18     12.57       0.0
  J46                  JUNCTION             -6.16     11.43       0.0
  J5                   JUNCTION             -1.09      8.97       0.0
  J50                  JUNCTION             -6.15     11.76       0.0
  J52                  JUNCTION             -6.13     12.49       0.0
  J57                  JUNCTION             -1.59      8.82       0.0
  J6                   JUNCTION             -2.09      5.83       0.0
  J63                  JUNCTION              1.87      4.03       0.0
  J7                   JUNCTION             -0.42      6.53       0.0
  J70                  JUNCTION              2.00      7.06       0.0
  J71                  JUNCTION              1.80      7.50       0.0
  J8                   JUNCTION             -1.37      8.64       0.0
  J89                  JUNCTION             -1.00      6.26       0.0
  J9                   JUNCTION             -2.20      4.44       0.0
  J96                  JUNCTION             -1.97      5.15       0.0
  outfall              OUTFALL              -6.30     10.00       0.0
  J155                 STORAGE              -4.00      7.18       0.0
  
  
  ************
  Link Summary
  ************
  Name             From Node        To Node          Type            Length    %Slope Roughness
  ---------------------------------------------------------------------------------------------
  C103_1           J71              J3               CONDUIT          380.3    0.6233    0.0100
  C103_3           J3               J5               CONDUIT          261.0    0.2000    0.0100
  C103_4           J5               J57              CONDUIT          252.8    0.2000    0.0100
  C108             J70              J71              CONDUIT          121.0    0.1612    0.0100
  C110             J43              J44              CONDUIT          240.0    0.1667    0.0100
  C125_1           J57              J1               CONDUIT          257.8    0.9757    0.0100
  C125_2           J1               J52              CONDUIT          254.2    0.0100    0.0100
  C147             J7               J4               CONDUIT          393.0    0.2000    0.0100
  C147_2           J4               J57              CONDUIT          194.0    0.2000    0.0100
  C147_5           J63              J7               CONDUIT          273.4    0.8371    0.0100
  C15              J26              J17              CONDUIT          386.0    0.2000    0.0100
  C152             J23              J63              CONDUIT          346.2    0.0323    0.0100
  C152_1           J147             J23              CONDUIT           56.8    0.0317    0.0100
  C158             J17              J151             CONDUIT           40.0    0.2000    0.0100
  C159             J151             J10              CONDUIT           65.0    0.0100    0.0100
  C160             J18              J151             CONDUIT           65.0    0.0100    0.0100
  C167             J104             J32              CONDUIT           77.0    0.0100    0.0100
  C168             J155             J104             CONDUIT           15.0    6.6815    0.0100
  C174             J156             J71              CONDUIT          226.0    0.0863    0.0100
  C18_1            J52              J13              CONDUIT           24.9    0.0104    0.0100
  C18_2            J13              J50              CONDUIT          142.9    0.0104    0.0100
  C2               J50              J46              CONDUIT           71.3    0.0100    0.0100
  C26              J11              J14              CONDUIT          445.6    0.2917    0.0100
  C27              J2               J89              CONDUIT          314.9    0.2000    0.0100
  C38              J96              J32              CONDUIT          130.0    0.1938    0.0100
  C47              J25              J26              CONDUIT          241.0    0.2000    0.0100
  C57              J103             J104             CONDUIT          262.0    0.0100    0.0100
  C62              J32              J30              CONDUIT          305.9    0.0100    0.0100
  C64              J89              J12              CONDUIT          237.9    0.2039    0.0100
  C64_2            J12              J6               CONDUIT          303.5    0.2000    0.0100
  C68_1            J6               J27              CONDUIT           38.4    0.1808    0.0100
  C68_2            J27              J9               CONDUIT           19.2    0.1804    0.0100
  C69              J9               J10              CONDUIT           52.0    0.2000    0.0100
  C70_1            J10              J14              CONDUIT          279.9    0.0046    0.0100
  C70_2            J14              outfall          CONDUIT            5.5    0.0183    0.0100
  C78              J30              J18              CONDUIT          281.0    0.0100    0.0100
  C84              J118             J103             CONDUIT          163.0    0.0100    0.0100
  C85              J44              J118             CONDUIT            8.0    0.0125    0.0100
  C86              J46              J44              CONDUIT          189.0    0.0100    0.0100
  C90_1            J121             J8               CONDUIT          179.1    0.2000    0.0100
  C90_2            J8               J32              CONDUIT          429.7    0.2000    0.0100
  C96              J126             J63              CONDUIT          582.0    0.1436    0.0100
  
  
  *********************
  Cross Section Summary
  *********************
                                        Full     Full     Hyd.     Max.   No. of     Full
  Conduit          Shape               Depth     Area     Rad.    Width  Barrels     Flow
  ---------------------------------------------------------------------------------------
  C103_1           CIRCULAR             1.50     1.77     0.38     1.50        1    10.78
  C103_3           CIRCULAR             1.50     1.77     0.38     1.50        1     6.11
  C103_4           CIRCULAR             1.50     1.77     0.38     1.50        1     6.11
  C108             CIRCULAR             1.25     1.23     0.31     1.25        1     3.37
  C110             CIRCULAR             1.50     1.77     0.38     1.50        1     5.57
  C125_1           CIRCULAR             3.00     7.07     0.75     3.00        1    85.65
  C125_2           RECT_CLOSED          8.00    40.00     1.54     5.00        1    79.21
  C147             CIRCULAR             2.00     3.14     0.50     2.00        1    13.15
  C147_2           CIRCULAR             2.00     3.14     0.50     2.00        1    13.15
  C147_5           CIRCULAR             2.01     3.16     0.50     2.01        1    27.16
  C15              CIRCULAR             1.75     2.41     0.44     1.75        1     9.21
  C152             CIRCULAR             1.26     1.24     0.31     1.26        1     1.53
  C152_1           CIRCULAR             1.26     1.24     0.31     1.26        1     1.51
  C158             CIRCULAR             1.75     2.41     0.44     1.75        1     9.21
  C159             RECT_CLOSED          8.00    40.00     1.54     5.00        1    79.21
  C160             RECT_CLOSED          8.00    40.00     1.54     5.00        1    79.21
  C167             RECT_CLOSED          8.00    40.00     1.54     5.00        1    79.21
  C168             CIRCULAR             2.00     3.14     0.50     2.00        1    76.02
  C174             CIRCULAR             1.00     0.79     0.25     1.00        1     1.36
  C18_1            RECT_CLOSED          8.00    40.00     1.54     5.00        1    80.82
  C18_2            RECT_CLOSED          8.00    40.00     1.54     5.00        1    80.92
  C2               RECT_CLOSED          8.00    40.00     1.54     5.00        1    79.21
  C26              CIRCULAR             1.00     0.79     0.25     1.00        1     2.50
  C27              CIRCULAR             1.25     1.23     0.31     1.25        1     3.76
  C38              CIRCULAR             1.50     1.77     0.38     1.50        1     6.01
  C47              CIRCULAR             1.75     2.41     0.44     1.75        1     9.21
  C57              RECT_CLOSED          8.00    40.00     1.54     5.00        1    79.21
  C62              RECT_CLOSED          8.00    40.00     1.54     5.00        1    79.21
  C64              CIRCULAR             2.00     3.14     0.50     2.00        1    13.28
  C64_2            CIRCULAR             2.00     3.14     0.50     2.00        1    13.15
  C68_1            CIRCULAR             2.00     3.14     0.50     2.00        1    12.51
  C68_2            CIRCULAR             2.00     3.14     0.50     2.00        1    12.49
  C69              CIRCULAR             2.00     3.14     0.50     2.00        1    13.15
  C70_1            RECT_CLOSED         10.00    50.00     1.67     5.00        1    70.50
  C70_2            RECT_CLOSED         10.00    50.00     1.67     5.00        1   141.22
  C78              RECT_CLOSED          8.00    40.00     1.54     5.00        1    79.21
  C84              RECT_CLOSED          8.00    40.00     1.54     5.00        1    79.21
  C85              RECT_CLOSED          8.00    40.00     1.54     5.00        1    88.56
  C86              RECT_CLOSED          8.00    40.00     1.54     5.00        1    79.21
  C90_1            RECT_CLOSED          1.50     1.36     0.28     0.91        1     3.91
  C90_2            RECT_CLOSED          1.50     1.36     0.28     0.91        1     3.91
  C96              CIRCULAR             1.25     1.23     0.31     1.25        1     3.18
  
  
  ****************
  Analysis Options
  ****************
  Flow Units ............... CFS
  Process Models:
    Rainfall/Runoff ........ YES
    RDII ................... NO
    Snowmelt ............... NO
    Groundwater ............ NO
    Flow Routing ........... YES
    Ponding Allowed ........ NO
    Water Quality .......... NO
  Infiltration Method ...... GREEN_AMPT
  Flow Routing Method ...... DYNWAVE
  Surcharge Method ......... EXTRAN
  Starting Date ............ 06/01/2025 00:00:00
  Ending Date .............. 06/01/2025 23:45:00
  Antecedent Dry Days ...... 0.0
  Report Time Step ......... 00:05:00
  Wet Time Step ............ 00:05:00
  Dry Time Step ............ 00:05:00
  Routing Time Step ........ 5.00 sec
  Variable Time Step ....... YES
  Maximum Trials ........... 8
  Number of Threads ........ 2
  Head Tolerance ........... 0.005000 ft
  
  
  *********************
  Control Actions Taken
  *********************

  
  **************************        Volume         Depth
  Runoff Quantity Continuity     acre-feet        inches
  **************************     ---------       -------
  Initial LID Storage ......         0.618         0.047
  Total Precipitation ......        18.677         1.433
  Evaporation Loss .........         0.000         0.000
  Infiltration Loss ........        10.865         0.833
  Surface Runoff ...........         6.051         0.464
  Final Storage ............         2.344         0.180
  Continuity Error (%) .....         0.182
  
  
  **************************        Volume        Volume
  Flow Routing Continuity        acre-feet      10^6 gal
  **************************     ---------     ---------
  Dry Weather Inflow .......         0.000         0.000
  Wet Weather Inflow .......         6.051         1.972
  Groundwater Inflow .......         0.000         0.000
  RDII Inflow ..............         0.000         0.000
  External Inflow ..........         0.000         0.000
  External Outflow .........         2.891         0.942
  Flooding Loss ............         0.000         0.000
  Evaporation Loss .........         0.000         0.000
  Exfiltration Loss ........         0.000         0.000
  Initial Stored Volume ....         1.620         0.528
  Final Stored Volume ......         4.782         1.558
  Continuity Error (%) .....        -0.025
  
  
  *************************
  Highest Continuity Errors
  *************************
  Node J30 (5.11%)
  Node J1 (3.54%)
  Node J103 (3.45%)
  Node J18 (3.15%)
  Node J52 (3.05%)
  
  
  ***************************
  Time-Step Critical Elements
  ***************************
  Link C85 (38.35%)
  Link C70_2 (30.10%)
  Link C168 (28.32%)
  Link C68_2 (1.11%)
  
  
  ********************************
  Highest Flow Instability Indexes
  ********************************
  Link C85 (5)
  Link C167 (4)
  Link C84 (4)
  Link C57 (3)
  Link C160 (3)
  
  
  *********************************
  Most Frequent Nonconverging Nodes
  *********************************
  Node outfall (0.76%)
  Node J96 (0.29%)
  Node J26 (0.15%)
  Node J8 (0.14%)
  Node J121 (0.08%)
  
  
  *************************
  Routing Time Step Summary
  *************************
  Minimum Time Step           :     0.50 sec
  Average Time Step           :     1.20 sec
  Maximum Time Step           :     5.00 sec
  % of Time in Steady State   :     0.00
  Average Iterations per Step :     2.08
  % of Steps Not Converging   :     0.76
  Time Step Frequencies       :
      5.000 -  3.155 sec      :     5.58 %
      3.155 -  1.991 sec      :    16.47 %
      1.991 -  1.256 sec      :    12.00 %
      1.256 -  0.792 sec      :     4.00 %
      0.792 -  0.500 sec      :    61.94 %
  
  
  ***************************
  Subcatchment Runoff Summary
  ***************************
  
  ------------------------------------------------------------------------------------------------------------------------------
                            Total      Total      Total      Total     Imperv       Perv      Total       Total     Peak  Runoff
                           Precip      Runon       Evap      Infil     Runoff     Runoff     Runoff      Runoff   Runoff   Coeff
  Subcatchment                 in         in         in         in         in         in         in    10^6 gal      CFS
  ------------------------------------------------------------------------------------------------------------------------------
  Sub_1                      1.43       0.00       0.00       0.96       0.76       0.00       0.38        0.03     0.21   0.263
  Sub_10                     1.43       0.00       0.00       0.44       1.07       0.45       0.82        0.05     0.52   0.575
  Sub_11                     1.43       0.00       0.00       0.89       0.78       0.00       0.47        0.01     0.07   0.325
  Sub_12                     1.43       0.00       0.00       1.04       0.67       0.00       0.27        0.04     0.30   0.186
  Sub_13                     1.43       0.00       0.00       1.07       0.69       0.00       0.23        0.03     0.21   0.161
  Sub_14                     1.43       0.00       0.00       1.00       0.69       0.00       0.28        0.11     0.88   0.195
  Sub_15                     1.43       0.00       0.00       0.93       0.79       0.01       0.34        0.03     0.26   0.238
  Sub_16                     1.43       0.00       0.00       0.84       0.66       0.18       0.51        0.04     0.43   0.355
  Sub_17                     1.43       0.00       0.00       1.07       0.56       0.00       0.27        0.04     0.28   0.188
  Sub_18                     1.43       0.00       0.00       0.63       1.09       0.27       0.60        0.02     0.28   0.417
  Sub_19                     1.43       0.00       0.00       0.66       1.07       0.21       0.56        0.03     0.33   0.391
  Sub_2                      1.43       0.00       0.00       0.64       0.88       0.27       0.67        0.09     0.92   0.468
  Sub_20                     1.43       0.00       0.00       0.96       0.77       0.00       0.34        0.11     0.82   0.236
  Sub_21                     1.43       0.00       0.00       0.78       0.98       0.11       0.52        0.03     0.35   0.360
  Sub_22                     1.43       0.00       0.00       0.55       0.96       0.24       0.83        0.02     0.21   0.580
  Sub_23                     1.43       0.00       0.00       0.87       0.87       0.00       0.48        0.04     0.30   0.336
  Sub_24                     1.43       0.00       0.00       0.92       0.80       0.00       0.38        0.06     0.48   0.268
  Sub_25                     1.43       0.00       0.00       0.94       0.59       0.17       0.42        0.04     0.45   0.290
  Sub_26                     1.43       0.00       0.00       0.95       0.83       0.02       0.36        0.06     0.50   0.253
  Sub_27                     1.43       0.00       0.00       0.82       0.92       0.08       0.48        0.03     0.28   0.332
  Sub_28                     1.43       0.00       0.00       0.78       0.97       0.07       0.51        0.15     1.23   0.357
  Sub_29                     1.43       0.00       0.00       0.68       1.05       0.14       0.61        0.07     0.72   0.425
  Sub_3                      1.43       0.00       0.00       0.51       1.00       0.26       0.82        0.06     0.59   0.573
  Sub_30                     1.43       0.00       0.00       0.71       1.02       0.14       0.58        0.04     0.42   0.405
  Sub_31                     1.43       0.00       0.00       0.74       0.97       0.09       0.52        0.04     0.36   0.366
  Sub_32                     1.43       0.00       0.00       0.68       1.06       0.16       0.58        0.12     1.18   0.408
  Sub_33                     1.43       0.00       0.00       0.55       1.15       0.23       0.72        0.06     0.61   0.503
  Sub_34                     1.43       0.00       0.00       0.83       0.87       0.04       0.44        0.03     0.22   0.304
  Sub_35                     1.43       0.00       0.00       0.76       0.95       0.06       0.51        0.04     0.32   0.358
  Sub_36                     1.43       0.00       0.00       0.99       0.66       0.00       0.27        0.01     0.08   0.187
  Sub_37                     1.43       0.00       0.00       0.64       1.06       0.15       0.60        0.03     0.28   0.422
  Sub_38                     1.43       0.00       0.00       0.71       1.00       0.08       0.59        0.07     0.62   0.415
  Sub_39                     1.43       0.00       0.00       0.92       0.75       0.00       0.39        0.13     0.98   0.271
  Sub_4                      1.43       0.00       0.00       0.55       1.14       0.20       0.75        0.04     0.44   0.524
  Sub_5                      1.43       0.00       0.00       0.17       1.33       0.59       1.14        0.06     0.55   0.799
  Sub_6                      1.43       0.00       0.00       0.52       1.16       0.24       0.68        0.03     0.27   0.477
  Sub_7                      1.43       0.00       0.00       0.65       1.05       0.03       0.75        0.02     0.15   0.525
  Sub_8                      1.43       0.00       0.00       1.04       0.54       0.00       0.38        0.00     0.03   0.266
  Sub_9                      1.43       0.00       0.00       0.93       0.58       0.15       0.40        0.05     0.53   0.277
  

  ***********************
  LID Performance Summary
  ***********************

  --------------------------------------------------------------------------------------------------------------------
                                         Total      Evap     Infil   Surface    Drain    Initial     Final  Continuity
                                        Inflow      Loss      Loss   Outflow   Outflow   Storage   Storage       Error
  Subcatchment      LID Control             in        in        in        in        in        in        in           %
  --------------------------------------------------------------------------------------------------------------------
  Sub_1             rain_garden           1.43      0.00      0.00      0.00      0.00      2.40      3.83        0.00
  Sub_1             rain_barrel          97.93      0.00      0.00     63.68      0.00      0.00     34.25       -0.00
  Sub_10            rain_barrel          98.56      0.00      0.00     64.31      0.00      0.00     34.25       -0.00
  Sub_11            rain_garden           1.43      0.00      0.00      0.00      0.00      2.40      3.83        0.00
  Sub_11            rain_barrel          97.21      0.00      0.00     62.96      0.00      0.00     34.25        0.00
  Sub_12            rain_garden           1.43      0.00      0.00      0.00      0.00      2.40      3.83        0.00
  Sub_12            rain_barrel          96.20      0.00      0.00     61.95      0.00      0.00     34.25       -0.00
  Sub_13            rain_garden           1.43      0.00      0.00      0.00      0.00      2.40      3.83        0.00
  Sub_13            rain_barrel          96.72      0.00      0.00     62.47      0.00      0.00     34.25        0.00
  Sub_14            rain_garden           1.43      0.00      0.00      0.00      0.00      2.40      3.83        0.00
  Sub_14            rain_barrel          95.24      0.00      0.00     60.99      0.00      0.00     34.25       -0.00
  Sub_15            rain_garden           1.58      0.00      0.00      0.00      0.00      2.40      3.98        0.00
  Sub_15            rain_barrel          94.71      0.00      0.00     60.46      0.00      0.00     34.25       -0.00
  Sub_16            rain_garden           3.19      0.00      0.65      0.00      0.00      2.40      4.95       -0.21
  Sub_16            rain_barrel          98.08      0.00      0.00     63.83      0.00      0.00     34.25        0.00
  Sub_17            rain_garden           1.43      0.00      0.00      0.00      0.00      2.40      3.83        0.00
  Sub_17            rain_barrel          96.64      0.00      0.00     62.39      0.00      0.00     34.25       -0.00
  Sub_18            rain_garden           7.74      0.00      2.28      0.00      0.00      2.40      7.87       -0.14
  Sub_18            rain_barrel          98.64      0.00      0.00     64.39      0.00      0.00     34.25        0.00
  Sub_19            rain_garden           6.21      0.00      1.61      0.00      0.00      2.40      7.01       -0.12
  Sub_19            rain_barrel          97.32      0.00      0.00     63.07      0.00      0.00     34.25        0.00
  Sub_2             rain_garden           5.20      0.00      1.24      0.00      0.00      2.40      6.38       -0.22
  Sub_2             rain_barrel          98.73      0.00      0.00     64.48      0.00      0.00     34.25        0.00
  Sub_20            rain_garden           1.45      0.00      0.00      0.00      0.00      2.40      3.85        0.00
  Sub_20            rain_barrel          96.69      0.00      0.00     62.44      0.00      0.00     34.25       -0.00
  Sub_21            rain_garden           3.32      0.00      0.67      0.00      0.00      2.40      5.05       -0.16
  Sub_21            rain_barrel          98.35      0.00      0.00     64.10      0.00      0.00     34.25        0.00
  Sub_22            rain_barrel          99.52      0.00      0.00     65.27      0.00      0.00     34.25        0.00
  Sub_23            rain_garden           1.47      0.00      0.00      0.00      0.00      2.40      3.87        0.00
  Sub_23            rain_barrel          98.14      0.00      0.00     63.89      0.00      0.00     34.25        0.00
  Sub_24            rain_garden           1.49      0.00      0.00      0.00      0.00      2.40      3.89        0.00
  Sub_24            rain_barrel          95.83      0.00      0.00     61.58      0.00      0.00     34.25        0.00
  Sub_25            rain_barrel         100.34      0.00      0.00     66.09      0.00      0.00     34.25        0.00
  Sub_26            rain_garden           1.65      0.00      0.00      0.00      0.00      2.40      4.05        0.00
  Sub_26            rain_barrel          98.56      0.00      0.00     64.31      0.00      0.00     34.25        0.00
  Sub_27            rain_garden           2.59      0.00      0.19      0.00      0.00      2.40      4.80       -0.03
  Sub_27            rain_barrel          98.12      0.00      0.00     63.87      0.00      0.00     34.25       -0.00
  Sub_28            rain_garden           2.66      0.00      0.27      0.00      0.00      2.40      4.80       -0.08
  Sub_28            rain_barrel          98.33      0.00      0.00     64.08      0.00      0.00     34.25        0.00
  Sub_29            rain_garden           4.40      0.00      0.97      0.00      0.00      2.40      5.84       -0.13
  Sub_29            rain_barrel          98.19      0.00      0.00     63.94      0.00      0.00     34.25        0.00
  Sub_3             rain_garden           6.01      0.00      1.55      0.00      0.00      2.40      6.87       -0.16
  Sub_3             rain_barrel          99.20      0.00      0.00     64.95      0.00      0.00     34.25        0.00
  Sub_30            rain_garden           4.17      0.00      0.90      0.00      0.00      2.40      5.67       -0.12
  Sub_30            rain_barrel          98.55      0.00      0.00     64.30      0.00      0.00     34.25        0.00
  Sub_31            rain_garden           2.97      0.00      0.57      0.00      0.00      2.40      4.80       -0.03
  Sub_31            rain_barrel          96.81      0.00      0.00     62.56      0.00      0.00     34.25        0.00
  Sub_32            rain_garden           5.03      0.00      1.16      0.00      0.00      2.40      6.28       -0.14
  Sub_32            rain_barrel          97.72      0.00      0.00     63.47      0.00      0.00     34.25       -0.00
  Sub_33            rain_garden           8.19      0.00      2.50      0.00      0.00      2.40      8.10       -0.14
  Sub_33            rain_barrel          97.97      0.00      0.00     63.72      0.00      0.00     34.25        0.00
  Sub_34            rain_garden           2.02      0.00      0.00      0.00      0.00      2.40      4.42        0.00
  Sub_34            rain_barrel          95.33      0.00      0.00     61.08      0.00      0.00     34.25       -0.00
  Sub_35            rain_garden           2.47      0.00      0.07      0.00      0.00      2.40      4.80       -0.04
  Sub_35            rain_barrel          96.31      0.00      0.00     62.06      0.00      0.00     34.25        0.00
  Sub_36            rain_garden           1.43      0.00      0.00      0.00      0.00      2.40      3.83        0.00
  Sub_36            rain_barrel          94.09      0.00      0.00     59.84      0.00      0.00     34.25        0.00
  Sub_37            rain_garden           4.77      0.00      1.09      0.00      0.00      2.40      6.09       -0.10
  Sub_37            rain_barrel          97.13      0.00      0.00     62.88      0.00      0.00     34.25       -0.00
  Sub_38            rain_garden           2.86      0.00      0.47      0.00      0.00      2.40      4.80       -0.16
  Sub_38            rain_barrel          97.13      0.00      0.00     62.88      0.00      0.00     34.25        0.00
  Sub_39            rain_garden           1.43      0.00      0.00      0.00      0.00      2.40      3.83        0.00
  Sub_39            rain_barrel          94.72      0.00      0.00     60.47      0.00      0.00     34.25       -0.00
  Sub_4             rain_garden           7.04      0.00      1.97      0.00      0.00      2.40      7.49       -0.14
  Sub_4             rain_barrel          98.82      0.00      0.00     64.57      0.00      0.00     34.25        0.00
  Sub_5             rain_garden          67.02      0.00      4.12     56.22      0.00      2.40      9.10       -0.03
  Sub_5             rain_barrel          98.77      0.00      0.00     64.52      0.00      0.00     34.25       -0.00
  Sub_6             rain_garden           9.45      0.00      2.74      0.81      0.00      2.40      8.31       -0.17
  Sub_6             rain_barrel          97.59      0.00      0.00     63.34      0.00      0.00     34.25       -0.00
  Sub_7             rain_barrel          98.46      0.00      0.00     64.21      0.00      0.00     34.25        0.00
  Sub_9             rain_garden           2.76      0.00      0.36      0.00      0.00      2.40      4.80       -0.03
  Sub_9             rain_barrel          96.75      0.00      0.00     62.50      0.00      0.00     34.25        0.00
  
  ******************
  Node Depth Summary
  ******************
  
  ---------------------------------------------------------------------------------
                                 Average  Maximum  Maximum  Time of Max    Reported
                                   Depth    Depth      HGL   Occurrence   Max Depth
  Node                 Type         Feet     Feet     Feet  days hr:min        Feet
  ---------------------------------------------------------------------------------
  J1                   JUNCTION     5.03     7.09     0.98     0  07:57        7.06
  J10                  JUNCTION     5.21     7.25     0.95     0  07:55        7.23
  J103                 JUNCTION     5.11     7.17     0.97     0  07:58        7.13
  J104                 JUNCTION     5.14     7.19     0.97     0  07:58        7.15
  J11                  JUNCTION     0.26     0.99     0.99     0  07:55        0.97
  J118                 JUNCTION     5.10     7.16     0.98     0  07:58        7.13
  J12                  JUNCTION     0.94     2.68     1.19     0  05:46        2.43
  J121                 JUNCTION     0.63     5.01     4.00     0  05:46        1.95
  J126                 JUNCTION     0.25     0.54     3.25     0  06:46        0.54
  J13                  JUNCTION     5.06     7.11     0.98     0  07:58        7.09
  J14                  JUNCTION     5.21     7.26     0.96     0  07:55        7.21
  J147                 JUNCTION     0.44     0.83     2.83     0  06:30        0.83
  J151                 JUNCTION     5.21     7.24     0.95     0  07:55        7.23
  J156                 JUNCTION     0.18     0.37     2.37     0  06:45        0.37
  J17                  JUNCTION     1.53     3.49     1.27     0  05:52        3.15
  J18                  JUNCTION     5.20     7.24     0.95     0  07:58        7.22
  J2                   JUNCTION     0.38     2.29     1.92     0  07:54        1.29
  J23                  JUNCTION     0.45     0.84     2.82     0  06:30        0.84
  J25                  JUNCTION     0.63     5.85     4.89     0  05:52        1.94
  J26                  JUNCTION     0.90     7.94     6.50     0  05:52        2.42
  J27                  JUNCTION     1.50     3.11     0.95     0  07:56        3.10
  J3                   JUNCTION     0.50     1.84     1.27     0  05:51        1.55
  J30                  JUNCTION     5.17     7.22     0.96     0  07:57        7.20
  J32                  JUNCTION     5.14     7.19     0.96     0  07:58        7.16
  J4                   JUNCTION     0.82     5.67     4.47     0  05:51        2.20
  J43                  JUNCTION     1.12     2.80     1.10     0  09:10        2.66
  J44                  JUNCTION     5.10     7.15     0.98     0  07:58        7.13
  J46                  JUNCTION     5.08     7.14     0.98     0  07:58        7.10
  J5                   JUNCTION     0.72     3.95     2.86     0  08:15        2.06
  J50                  JUNCTION     5.07     7.13     0.98     0  07:58        7.10
  J52                  JUNCTION     5.05     7.11     0.98     0  07:58        7.09
  J57                  JUNCTION     1.04     2.59     1.00     0  07:59        2.55
  J6                   JUNCTION     1.45     3.04     0.95     0  07:56        3.03
  J63                  JUNCTION     0.24     0.47     2.34     0  06:45        0.47
  J7                   JUNCTION     0.52     1.47     1.06     0  07:59        1.47
  J70                  JUNCTION     0.07     0.13     2.13     0  06:15        0.13
  J71                  JUNCTION     0.13     0.26     2.07     0  06:31        0.26
  J8                   JUNCTION     0.83     8.64     7.27     0  08:44        2.31
  J89                  JUNCTION     0.64     1.98     0.98     0  05:51        1.95
  J9                   JUNCTION     1.53     3.16     0.96     0  07:54        3.13
  J96                  JUNCTION     1.32     4.09     2.12     0  09:36        2.90
  outfall              OUTFALL      6.66     8.00     1.70     0  06:00        8.00
  J155                 STORAGE      3.58     4.77     0.77     0  08:13        4.76
  
  
  *******************
  Node Inflow Summary
  *******************
  
  -------------------------------------------------------------------------------------------------
                                  Maximum  Maximum                  Lateral       Total        Flow
                                  Lateral    Total  Time of Max      Inflow      Inflow     Balance
                                   Inflow   Inflow   Occurrence      Volume      Volume       Error
  Node                 Type           CFS      CFS  days hr:min    10^6 gal    10^6 gal     Percent
  -------------------------------------------------------------------------------------------------
  J1                   JUNCTION      0.50     9.04     0  05:53      0.0635       0.779       3.669
  J10                  JUNCTION      0.03    29.60     0  08:18     0.00381         1.1       2.906
  J103                 JUNCTION      0.30    15.25     0  05:52      0.0385        1.08       3.577
  J104                 JUNCTION      0.00    28.13     0  08:56           0        1.72       1.779
  J11                  JUNCTION      0.44     0.46     0  05:48      0.0444      0.0444       0.294
  J118                 JUNCTION      0.48    27.37     0  05:40      0.0509        1.05       1.348
  J12                  JUNCTION      0.82     2.02     0  05:52      0.0874       0.145      -0.096
  J121                 JUNCTION      0.33     0.46     0  05:46      0.0328      0.0329      -0.108
  J126                 JUNCTION      1.18     1.18     0  06:45       0.121       0.121       0.004
  J13                  JUNCTION      0.82    10.32     0  05:53       0.106       0.879       1.686
  J14                  JUNCTION      0.00    30.16     0  08:17           0       0.936       2.808
  J147                 JUNCTION      0.98     0.98     0  06:15       0.126       0.126       0.000
  J151                 JUNCTION      0.00    28.22     0  08:18           0        1.03       1.155
  J156                 JUNCTION      0.36     0.36     0  06:45      0.0413      0.0413      -0.001
  J17                  JUNCTION      0.15     1.45     0  05:45      0.0175       0.116       1.344
  J18                  JUNCTION      0.00    27.46     0  08:18           0       0.987       3.248
  J2                   JUNCTION      0.21     0.70     0  05:44      0.0273      0.0278      -0.078
  J23                  JUNCTION      0.62     1.58     0  06:30      0.0705       0.197       0.002
  J25                  JUNCTION      0.55     1.05     0  05:44      0.0627      0.0631      -0.157
  J26                  JUNCTION      0.27     1.46     0  05:52      0.0313      0.0955      -0.043
  J27                  JUNCTION      0.00     2.83     0  05:52           0       0.242       0.116
  J3                   JUNCTION      0.32     1.03     0  06:45      0.0385       0.121      -0.002
  J30                  JUNCTION      0.28    25.59     0  08:18      0.0362        1.02       5.384
  J32                  JUNCTION      0.43    36.20     0  08:46      0.0388         1.2       3.000
  J4                   JUNCTION      0.48     5.20     0  05:54      0.0618       0.516      -0.003
  J43                  JUNCTION      1.23     1.23     0  07:00       0.147       0.148       0.312
  J44                  JUNCTION      0.00    17.63     0  05:40           0        1.01       1.870
  J46                  JUNCTION      0.35    11.69     0  05:53      0.0347       0.885       2.633
  J5                   JUNCTION      0.22     1.63     0  05:52       0.027       0.148      -0.010
  J50                  JUNCTION      0.00    11.01     0  05:53           0       0.867       2.200
  J52                  JUNCTION      0.45     9.58     0  05:53      0.0381       0.794       3.146
  J57                  JUNCTION      0.42     7.00     0  05:54      0.0416       0.709       0.079
  J6                   JUNCTION      0.98     2.83     0  05:52       0.096       0.242       0.398
  J63                  JUNCTION      0.61     3.33     0  06:45      0.0624        0.38      -0.006
  J7                   JUNCTION      0.72     4.05     0  06:45      0.0737       0.454      -0.013
  J70                  JUNCTION      0.08     0.08     0  06:15      0.0104      0.0104      -0.007
  J71                  JUNCTION      0.28     0.72     0  06:30      0.0308      0.0825      -0.035
  J8                   JUNCTION      0.28     0.81     0  08:44      0.0246      0.0585       0.703
  J89                  JUNCTION      0.21     1.33     0  05:45      0.0268      0.0568      -0.010
  J9                   JUNCTION      0.53     3.11     0  05:52      0.0487       0.291       0.127
  J96                  JUNCTION      0.26     0.60     0  09:42      0.0341      0.0367       0.467
  outfall              OUTFALL       0.59    30.82     0  08:17      0.0623       0.942       0.000
  J155                 STORAGE       0.88    20.41     0  05:53       0.113        1.46      -0.003
  
  
  **********************
  Node Surcharge Summary
  **********************
  
  Surcharging occurs when water rises above the top of the highest conduit.
  ---------------------------------------------------------------------
                                               Max. Height   Min. Depth
                                   Hours       Above Crown    Below Rim
  Node                 Type      Surcharged           Feet         Feet
  ---------------------------------------------------------------------
  J12                  JUNCTION        2.72          0.679        3.400
  J121                 JUNCTION        2.74          3.508        4.488
  J17                  JUNCTION        4.20          1.737        3.246
  J2                   JUNCTION        0.19          1.044        5.390
  J25                  JUNCTION        0.35          4.103        3.565
  J26                  JUNCTION        3.02          6.190        0.000
  J27                  JUNCTION        3.71          1.112        1.791
  J3                   JUNCTION        0.13          0.338        7.283
  J4                   JUNCTION        0.48          3.671        1.956
  J43                  JUNCTION        3.76          1.302        5.848
  J5                   JUNCTION        2.84          2.450        5.016
  J6                   JUNCTION        3.62          1.044        2.790
  J8                   JUNCTION        3.27          7.137        0.000
  J9                   JUNCTION        3.76          1.160        1.280
  J96                  JUNCTION        4.17          2.586        1.067
  
  
  *********************
  Node Flooding Summary
  *********************
  
  Flooding refers to all water that overflows a node, whether it ponds or not.
  --------------------------------------------------------------------------
                                                             Total   Maximum
                                 Maximum   Time of Max       Flood    Ponded
                        Hours       Rate    Occurrence      Volume     Depth
  Node                 Flooded       CFS   days hr:min    10^6 gal      Feet
  --------------------------------------------------------------------------
  J26                     0.01      0.75      0  05:52       0.000     0.000
  J8                      0.01      0.42      0  08:44       0.000     0.000
  
  
  **********************
  Storage Volume Summary
  **********************
  
  ------------------------------------------------------------------------------------------------
                         Average    Avg   Evap  Exfil     Maximum    Max    Time of Max    Maximum
                          Volume   Pcnt   Pcnt   Pcnt      Volume   Pcnt     Occurrence    Outflow
  Storage Unit          1000 ft   Full   Loss   Loss    1000 ft   Full    days hr:min        CFS
  ------------------------------------------------------------------------------------------------
  J155                   136.676   43.4    0.0    0.0     189.447   60.1       0  08:13      12.23
  
  
  ***********************
  Outfall Loading Summary
  ***********************
  
  -----------------------------------------------------------
                         Flow       Avg       Max       Total
                         Freq      Flow      Flow      Volume
  Outfall Node           Pcnt       CFS       CFS    10^6 gal
  -----------------------------------------------------------
  outfall               79.00      4.15     30.82       0.942
  -----------------------------------------------------------
  System                79.00      4.15     30.82       0.942
  
  
  ********************
  Link Flow Summary
  ********************
  
  -----------------------------------------------------------------------------
                                 Maximum  Time of Max   Maximum    Max/    Max/
                                  |Flow|   Occurrence   |Veloc|    Full    Full
  Link                 Type          CFS  days hr:min    ft/sec    Flow   Depth
  -----------------------------------------------------------------------------
  C103_1               CONDUIT      0.72     0  06:31      2.21    0.07    0.58
  C103_3               CONDUIT      1.47     0  08:18      2.22    0.24    1.00
  C103_4               CONDUIT      1.63     0  05:52      2.29    0.27    1.00
  C108                 CONDUIT      0.08     0  06:15      0.71    0.02    0.16
  C110                 CONDUIT      1.23     0  07:00      2.47    0.22    1.00
  C125_1               CONDUIT      8.57     0  05:53      5.67    0.10    0.93
  C125_2               CONDUIT      9.38     0  05:53      0.65    0.12    0.89
  C147                 CONDUIT      4.73     0  05:54      3.22    0.36    0.87
  C147_2               CONDUIT      5.35     0  05:54      4.48    0.41    1.00
  C147_5               CONDUIT      3.33     0  06:45      3.84    0.12    0.47
  C15                  CONDUIT      1.32     0  05:45      2.00    0.14    1.00
  C152                 CONDUIT      1.58     0  06:31      2.42    1.03    0.52
  C152_1               CONDUIT      0.98     0  06:15      1.16    0.65    0.66
  C158                 CONDUIT      1.45     0  05:45      2.41    0.16    1.00
  C159                 CONDUIT     27.91     0  08:18      0.80    0.35    0.91
  C160                 CONDUIT     27.46     0  08:18      0.79    0.35    0.90
  C167                 CONDUIT     35.52     0  08:46      1.09    0.45    0.90
  C168                 CONDUIT     19.54     0  05:53      9.44    0.26    0.67
  C174                 CONDUIT      0.36     0  06:45      1.71    0.26    0.31
  C18_1                CONDUIT      9.51     0  05:53      0.61    0.12    0.89
  C18_2                CONDUIT     11.01     0  05:53      0.67    0.14    0.89
  C2                   CONDUIT     11.48     0  05:53      0.60    0.14    0.89
  C26                  CONDUIT      0.55     0  06:00      2.04    0.22    1.00
  C27                  CONDUIT      0.52     0  05:53      1.41    0.14    1.00
  C38                  CONDUIT      0.55     0  09:42      1.75    0.09    1.00
  C47                  CONDUIT      1.12     0  05:52      1.68    0.12    1.00
  C57                  CONDUIT     15.69     0  05:52      0.45    0.20    0.90
  C62                  CONDUIT     25.44     0  08:18      0.73    0.32    0.90
  C64                  CONDUIT      1.22     0  05:52      1.35    0.09    1.00
  C64_2                CONDUIT      2.00     0  05:52      1.92    0.15    1.00
  C68_1                CONDUIT      2.83     0  05:52      2.47    0.23    1.00
  C68_2                CONDUIT      2.83     0  05:52      2.44    0.23    1.00
  C69                  CONDUIT      3.10     0  05:52      2.95    0.24    1.00
  C70_1                CONDUIT     29.91     0  08:17      0.86    0.42    0.72
  C70_2                CONDUIT     30.54     0  08:17      0.88    0.22    0.76
  C78                  CONDUIT     27.46     0  08:18      0.79    0.35    0.90
  C84                  CONDUIT     14.95     0  05:52      0.57    0.19    0.89
  C85                  CONDUIT     26.99     0  05:40      0.87    0.30    0.89
  C86                  CONDUIT     11.98     0  08:17      0.55    0.15    0.89
  C90_1                CONDUIT      0.66     0  08:44      1.23    0.17    1.00
  C90_2                CONDUIT      0.63     0  06:12      1.76    0.16    1.00
  C96                  CONDUIT      1.18     0  06:46      2.51    0.37    0.41
  
  
  ***************************
  Flow Classification Summary
  ***************************
  
  -------------------------------------------------------------------------------------
                      Adjusted    ---------- Fraction of Time in Flow Class ---------- 
                       /Actual         Up    Down  Sub   Sup   Up    Down  Norm  Inlet 
  Conduit               Length    Dry  Dry   Dry   Crit  Crit  Crit  Crit  Ltd   Ctrl  
  -------------------------------------------------------------------------------------
  C103_1                  1.00   0.00  0.00  0.00  1.00  0.00  0.00  0.00  0.99  0.00
  C103_3                  1.00   0.00  0.00  0.00  1.00  0.00  0.00  0.00  0.82  0.00
  C103_4                  1.00   0.00  0.00  0.00  1.00  0.00  0.00  0.00  0.73  0.00
  C108                    1.00   0.00  0.00  0.00  1.00  0.00  0.00  0.00  0.87  0.00
  C110                    1.00   0.00  0.00  0.00  0.79  0.00  0.00  0.21  0.01  0.00
  C125_1                  1.00   0.00  0.00  0.00  0.81  0.01  0.00  0.18  0.05  0.00
  C125_2                  1.00   0.00  0.00  0.00  1.00  0.00  0.00  0.00  0.00  0.00
  C147                    1.00   0.00  0.00  0.00  1.00  0.00  0.00  0.00  0.85  0.00
  C147_2                  1.00   0.00  0.00  0.00  0.89  0.11  0.00  0.00  0.53  0.00
  C147_5                  1.00   0.00  0.00  0.00  0.82  0.18  0.00  0.00  0.99  0.00
  C15                     1.00   0.00  0.00  0.00  1.00  0.00  0.00  0.00  0.31  0.00
  C152                    1.00   0.00  0.00  0.00  1.00  0.00  0.00  0.00  0.00  0.00
  C152_1                  1.00   0.00  0.00  0.00  1.00  0.00  0.00  0.00  0.18  0.00
  C158                    1.00   0.00  0.00  0.00  0.79  0.00  0.00  0.20  0.00  0.00
  C159                    1.00   0.00  0.01  0.00  0.99  0.00  0.00  0.00  0.01  0.00
  C160                    1.00   0.01  0.02  0.00  0.96  0.00  0.00  0.00  0.00  0.00
  C167                    1.00   0.01  0.04  0.00  0.96  0.00  0.00  0.00  0.01  0.00
  C168                    1.00   0.22  0.02  0.00  0.05  0.06  0.09  0.57  0.05  0.00
  C174                    1.00   0.00  0.00  0.00  1.00  0.00  0.00  0.00  0.00  0.00
  C18_1                   1.00   0.00  0.01  0.00  0.99  0.00  0.00  0.00  0.03  0.00
  C18_2                   1.00   0.00  0.00  0.00  1.00  0.00  0.00  0.00  0.00  0.00
  C2                      1.00   0.00  0.03  0.00  0.97  0.00  0.00  0.00  0.02  0.00
  C26                     1.00   0.00  0.00  0.00  0.51  0.00  0.00  0.49  0.39  0.00
  C27                     1.00   0.00  0.00  0.00  1.00  0.00  0.00  0.00  0.47  0.00
  C38                     1.00   0.00  0.00  0.00  0.79  0.00  0.00  0.21  0.00  0.00
  C47                     1.00   0.00  0.00  0.00  1.00  0.00  0.00  0.00  0.79  0.00
  C57                     1.00   0.01  0.00  0.00  0.99  0.00  0.00  0.00  0.00  0.00
  C62                     1.00   0.00  0.01  0.00  0.99  0.00  0.00  0.00  0.00  0.00
  C64                     1.00   0.00  0.00  0.00  1.00  0.00  0.00  0.00  0.79  0.00
  C64_2                   1.00   0.00  0.00  0.00  1.00  0.00  0.00  0.00  0.29  0.00
  C68_1                   1.00   0.00  0.00  0.00  1.00  0.00  0.00  0.00  0.00  0.00
  C68_2                   1.00   0.00  0.00  0.00  0.99  0.00  0.00  0.00  0.09  0.00
  C69                     1.00   0.00  0.00  0.00  0.79  0.00  0.00  0.21  0.00  0.00
  C70_1                   1.00   0.01  0.02  0.00  0.97  0.00  0.00  0.00  0.00  0.00
  C70_2                   1.00   0.00  0.00  0.00  1.00  0.00  0.00  0.00  0.00  0.00
  C78                     1.00   0.00  0.00  0.00  1.00  0.00  0.00  0.00  0.03  0.00
  C84                     1.00   0.00  0.00  0.00  1.00  0.00  0.00  0.00  0.00  0.00
  C85                     1.00   0.00  0.02  0.00  0.98  0.00  0.00  0.00  0.00  0.00
  C86                     1.00   0.00  0.00  0.00  1.00  0.00  0.00  0.00  0.04  0.00
  C90_1                   1.00   0.00  0.00  0.00  1.00  0.00  0.00  0.00  0.73  0.00
  C90_2                   1.00   0.01  0.00  0.00  0.79  0.00  0.00  0.20  0.16  0.00
  C96                     1.00   0.00  0.00  0.00  1.00  0.00  0.00  0.00  0.45  0.00
  
  
  *************************
  Conduit Surcharge Summary
  *************************
  
  ----------------------------------------------------------------------------
                                                           Hours        Hours 
                         --------- Hours Full --------   Above Full   Capacity
  Conduit                Both Ends  Upstream  Dnstream   Normal Flow   Limited
  ----------------------------------------------------------------------------
  C103_1                      0.01      0.01      0.13      0.01         0.01
  C103_3                      0.13      0.13      2.84      0.01         0.01
  C103_4                      2.84      2.84      3.60      0.01         0.01
  C110                        3.76      3.76      4.44      0.01         0.01
  C125_1                      0.01      0.01      5.40      0.01         0.01
  C147                        0.01      0.01      0.48      0.01         0.01
  C147_2                      0.48      0.48      2.86      0.01         0.01
  C15                         3.02      3.02      4.20      0.01         0.01
  C152                        0.01      0.01      0.01      0.64         0.01
  C158                        4.20      4.20      4.33      0.01         0.01
  C26                         0.01      0.01      3.93      0.01         0.01
  C27                         0.19      0.19      3.09      0.01         0.01
  C38                         4.17      4.17      4.64      0.01         0.01
  C47                         0.35      0.35      3.02      0.01         0.01
  C64                         0.01      0.01      2.72      0.01         0.01
  C64_2                       2.72      2.72      3.62      0.01         0.01
  C68_1                       3.62      3.62      3.71      0.01         0.01
  C68_2                       3.71      3.71      3.76      0.01         0.01
  C69                         3.76      3.76      3.93      0.01         0.01
  C90_1                       2.74      2.74      3.27      0.01         0.01
  C90_2                       3.27      3.27      4.65      0.01         0.01
  

  Analysis begun on:  Sat Jun 14 17:02:11 2025
  Analysis ended on:  Sat Jun 14 17:02:14 2025
  Total elapsed time: 00:00:03