
  EPA STORM WATER MANAGEMENT MODEL - VERSION 5.2 (Build 5.2.4)
  PYSWMM TOOLKIT API - VERSION v1.0 (2024-04-17)
  ------------------------------------------------------------

  WARNING 04: minimum elevation drop used for Conduit C70_2
  WARNING 04: minimum elevation drop used for Conduit C85
  
  *************
  Element Count
  *************
  Number of rain gages ...... 1
  Number of subcatchments ... 39
  Number of nodes ........... 43
  Number of links ........... 42
  Number of pollutants ...... 0
  Number of land uses ....... 0
  
  
  ****************
  Raingage Summary
  ****************
                                                      Data       Recording
  Name                 Data Source                    Type       Interval 
  ------------------------------------------------------------------------
  rain_gage            rain_gage_timeseries           INTENSITY   15 min.
  
  
  ********************
  Subcatchment Summary
  ********************
  Name                       Area     Width   %Imperv    %Slope Rain Gage            Outlet              
  -----------------------------------------------------------------------------------------------------------
  Sub_1                      2.62    272.79     55.00    3.9580 rain_gage            J89                 
  Sub_10                     2.19    296.41     77.00    2.4860 rain_gage            J12                 
  Sub_11                     0.67    130.53     57.00    5.0240 rain_gage            J6                  
  Sub_12                     5.31    283.97     49.00    3.4940 rain_gage            J12                 
  Sub_13                     4.38    341.66     50.00    2.9930 rain_gage            J2                  
  Sub_14                    14.91    412.40     52.00    3.9710 rain_gage            J155                
  Sub_15                     3.68    325.75     59.00    4.8800 rain_gage            J96                 
  Sub_16                     2.81    372.64     48.00    3.5770 rain_gage            J32                 
  Sub_17                     4.94    458.98     41.00    4.7410 rain_gage            J30                 
  Sub_18                     1.52    250.00     79.00    2.3090 rain_gage            J8                  
  Sub_19                     2.15    372.00     78.00    3.4760 rain_gage            J121                
  Sub_2                      4.81    406.94     64.00    3.8880 rain_gage            J6                  
  Sub_20                    11.54    261.37     57.00    3.9380 rain_gage            J13                 
  Sub_21                     2.48    159.75     71.00    3.2870 rain_gage            J46                 
  Sub_22                     0.94    200.00     69.00    3.2890 rain_gage            J118                
  Sub_23                     2.95    250.00     63.00    3.6520 rain_gage            J103                
  Sub_24                     5.93    412.94     59.00    3.2030 rain_gage            J4                  
  Sub_25                     3.38    300.00     42.00    3.1260 rain_gage            J52                 
  Sub_26                     6.44    408.85     60.00    3.6440 rain_gage            J1                  
  Sub_27                     2.29    250.00     67.00    3.4680 rain_gage            J118                
  Sub_28                    10.61    229.01     71.00    3.1810 rain_gage            J43                 
  Sub_29                     4.46    300.00     76.00    3.1960 rain_gage            J7                  
  Sub_3                      2.79    466.00     72.00    3.7700 rain_gage            outfall             
  Sub_30                     2.64    390.64     74.00    3.0810 rain_gage            J57                 
  Sub_31                     2.90    292.33     72.00    2.7780 rain_gage            J156                
  Sub_32                     7.63    310.58     77.00    2.8180 rain_gage            J126                
  Sub_33                     3.19    461.41     83.00    3.0790 rain_gage            J63                 
  Sub_34                     2.29    250.00     65.00    2.6240 rain_gage            J5                  
  Sub_35                     2.76    217.64     70.00    2.8170 rain_gage            J3                  
  Sub_36                     1.43    235.88     50.00    2.2300 rain_gage            J70                 
  Sub_37                     1.87    251.70     78.00    3.2300 rain_gage            J71                 
  Sub_38                     4.37    354.85     73.00    3.2410 rain_gage            J23                 
  Sub_39                    11.94    244.72     56.00    2.9530 rain_gage            J147                
  Sub_4                      2.18    358.74     82.00    3.9740 rain_gage            J11                 
  Sub_5                      2.02    268.69     96.00    3.0480 rain_gage            J25                 
  Sub_6                      1.69    314.60     85.00    3.7140 rain_gage            J26                 
  Sub_7                      0.86    147.58     75.00    3.3650 rain_gage            J17                 
  Sub_8                      0.37     73.53     39.00    3.1440 rain_gage            J10                 
  Sub_9                      4.52    345.46     42.00    3.8900 rain_gage            J9                  


  *******************
  LID Control Summary
  *******************
                                   No. of        Unit        Unit      % Area    % Imperv      % Perv
  Subcatchment     LID Control      Units        Area       Width     Covered     Treated     Treated
  ---------------------------------------------------------------------------------------------------
  Sub_14           rain_garden         45      100.00        0.00        0.69        0.00        7.20
  Sub_14           rain_barrel        350        2.95        0.00        0.16       31.12        0.00
  Sub_15           rain_garden         35      100.00        0.00        2.18        0.00       26.87
  Sub_15           rain_barrel        120        2.95        0.00        0.22       37.80        0.00
  Sub_21           rain_barrel        100        2.95        0.00        0.27       38.99        0.00
  Sub_23           rain_garden          5      100.00        0.00        0.39        0.00        5.33
  Sub_23           rain_barrel         25        2.95        0.00        0.06        9.21        0.00
  Sub_28           rain_garden         30      100.00        0.00        0.65        0.00       11.02
  Sub_28           rain_barrel        300        2.95        0.00        0.19       27.63        0.00
  
  
  ************
  Node Summary
  ************
                                           Invert      Max.    Ponded    External
  Name                 Type                 Elev.     Depth      Area    Inflow  
  -------------------------------------------------------------------------------
  J1                   JUNCTION             -6.11     11.75       0.0
  J10                  JUNCTION             -6.30     10.18       0.0
  J103                 JUNCTION             -6.19     10.56       0.0
  J104                 JUNCTION             -6.22     10.06       0.0
  J11                  JUNCTION              0.00      4.57       0.0
  J118                 JUNCTION             -6.18     12.12       0.0
  J12                  JUNCTION             -1.49      6.08       0.0
  J121                 JUNCTION             -1.01      9.50       0.0
  J126                 JUNCTION              2.71      5.20       0.0
  J13                  JUNCTION             -6.14     12.38       0.0
  J14                  JUNCTION             -6.30     10.18       0.0
  J147                 JUNCTION              2.00      4.84       0.0
  J151                 JUNCTION             -6.29     10.14       0.0
  J156                 JUNCTION              2.00      6.65       0.0
  J17                  JUNCTION             -2.21      6.73       0.0
  J18                  JUNCTION             -6.29     10.21       0.0
  J2                   JUNCTION             -0.37      7.68       0.0
  J23                  JUNCTION              1.98      4.73       0.0
  J25                  JUNCTION             -0.96      9.42       0.0
  J26                  JUNCTION             -1.44      7.94       0.0
  J27                  JUNCTION             -2.16      4.90       0.0
  J3                   JUNCTION             -0.57      9.12       0.0
  J30                  JUNCTION             -6.26      9.78       0.0
  J32                  JUNCTION             -6.23     10.58       0.0
  J4                   JUNCTION             -1.20      7.63       0.0
  J43                  JUNCTION             -1.70      8.65       0.0
  J44                  JUNCTION             -6.18     12.57       0.0
  J46                  JUNCTION             -6.16     11.43       0.0
  J5                   JUNCTION             -1.09      8.97       0.0
  J50                  JUNCTION             -6.15     11.76       0.0
  J52                  JUNCTION             -6.13     12.49       0.0
  J57                  JUNCTION             -1.59      8.82       0.0
  J6                   JUNCTION             -2.09      5.83       0.0
  J63                  JUNCTION              1.87      4.03       0.0
  J7                   JUNCTION             -0.42      6.53       0.0
  J70                  JUNCTION              2.00      7.06       0.0
  J71                  JUNCTION              1.80      7.50       0.0
  J8                   JUNCTION             -1.37      8.64       0.0
  J89                  JUNCTION             -1.00      6.26       0.0
  J9                   JUNCTION             -2.20      4.44       0.0
  J96                  JUNCTION             -1.97      5.15       0.0
  outfall              OUTFALL              -6.30     10.00       0.0
  J155                 STORAGE              -4.00      7.18       0.0
  
  
  ************
  Link Summary
  ************
  Name             From Node        To Node          Type            Length    %Slope Roughness
  ---------------------------------------------------------------------------------------------
  C103_1           J71              J3               CONDUIT          380.3    0.6233    0.0100
  C103_3           J3               J5               CONDUIT          261.0    0.2000    0.0100
  C103_4           J5               J57              CONDUIT          252.8    0.2000    0.0100
  C108             J70              J71              CONDUIT          121.0    0.1612    0.0100
  C110             J43              J44              CONDUIT          240.0    0.1667    0.0100
  C125_1           J57              J1               CONDUIT          257.8    0.9757    0.0100
  C125_2           J1               J52              CONDUIT          254.2    0.0100    0.0100
  C147             J7               J4               CONDUIT          393.0    0.2000    0.0100
  C147_2           J4               J57              CONDUIT          194.0    0.2000    0.0100
  C147_5           J63              J7               CONDUIT          273.4    0.8371    0.0100
  C15              J26              J17              CONDUIT          386.0    0.2000    0.0100
  C152             J23              J63              CONDUIT          346.2    0.0323    0.0100
  C152_1           J147             J23              CONDUIT           56.8    0.0317    0.0100
  C158             J17              J151             CONDUIT           40.0    0.2000    0.0100
  C159             J151             J10              CONDUIT           65.0    0.0100    0.0100
  C160             J18              J151             CONDUIT           65.0    0.0100    0.0100
  C167             J104             J32              CONDUIT           77.0    0.0100    0.0100
  C168             J155             J104             CONDUIT           15.0    6.6815    0.0100
  C174             J156             J71              CONDUIT          226.0    0.0863    0.0100
  C18_1            J52              J13              CONDUIT           24.9    0.0104    0.0100
  C18_2            J13              J50              CONDUIT          142.9    0.0104    0.0100
  C2               J50              J46              CONDUIT           71.3    0.0100    0.0100
  C26              J11              J14              CONDUIT          445.6    0.2917    0.0100
  C27              J2               J89              CONDUIT          314.9    0.2000    0.0100
  C38              J96              J32              CONDUIT          130.0    0.1938    0.0100
  C47              J25              J26              CONDUIT          241.0    0.2000    0.0100
  C57              J103             J104             CONDUIT          262.0    0.0100    0.0100
  C62              J32              J30              CONDUIT          305.9    0.0100    0.0100
  C64              J89              J12              CONDUIT          237.9    0.2039    0.0100
  C64_2            J12              J6               CONDUIT          303.5    0.2000    0.0100
  C68_1            J6               J27              CONDUIT           38.4    0.1808    0.0100
  C68_2            J27              J9               CONDUIT           19.2    0.1804    0.0100
  C69              J9               J10              CONDUIT           52.0    0.2000    0.0100
  C70_1            J10              J14              CONDUIT          279.9    0.0046    0.0100
  C70_2            J14              outfall          CONDUIT            5.5    0.0183    0.0100
  C78              J30              J18              CONDUIT          281.0    0.0100    0.0100
  C84              J118             J103             CONDUIT          163.0    0.0100    0.0100
  C85              J44              J118             CONDUIT            8.0    0.0125    0.0100
  C86              J46              J44              CONDUIT          189.0    0.0100    0.0100
  C90_1            J121             J8               CONDUIT          179.1    0.2000    0.0100
  C90_2            J8               J32              CONDUIT          429.7    0.2000    0.0100
  C96              J126             J63              CONDUIT          582.0    0.1436    0.0100
  
  
  *********************
  Cross Section Summary
  *********************
                                        Full     Full     Hyd.     Max.   No. of     Full
  Conduit          Shape               Depth     Area     Rad.    Width  Barrels     Flow
  ---------------------------------------------------------------------------------------
  C103_1           CIRCULAR             1.50     1.77     0.38     1.50        1    10.78
  C103_3           CIRCULAR             1.50     1.77     0.38     1.50        1     6.11
  C103_4           CIRCULAR             1.50     1.77     0.38     1.50        1     6.11
  C108             CIRCULAR             1.25     1.23     0.31     1.25        1     3.37
  C110             CIRCULAR             1.50     1.77     0.38     1.50        1     5.57
  C125_1           CIRCULAR             3.00     7.07     0.75     3.00        1    85.65
  C125_2           RECT_CLOSED          8.00    40.00     1.54     5.00        1    79.21
  C147             CIRCULAR             2.00     3.14     0.50     2.00        1    13.15
  C147_2           CIRCULAR             2.00     3.14     0.50     2.00        1    13.15
  C147_5           CIRCULAR             2.01     3.16     0.50     2.01        1    27.16
  C15              CIRCULAR             1.75     2.41     0.44     1.75        1     9.21
  C152             CIRCULAR             1.26     1.24     0.31     1.26        1     1.53
  C152_1           CIRCULAR             1.26     1.24     0.31     1.26        1     1.51
  C158             CIRCULAR             1.75     2.41     0.44     1.75        1     9.21
  C159             RECT_CLOSED          8.00    40.00     1.54     5.00        1    79.21
  C160             RECT_CLOSED          8.00    40.00     1.54     5.00        1    79.21
  C167             RECT_CLOSED          8.00    40.00     1.54     5.00        1    79.21
  C168             CIRCULAR             2.00     3.14     0.50     2.00        1    76.02
  C174             CIRCULAR             1.00     0.79     0.25     1.00        1     1.36
  C18_1            RECT_CLOSED          8.00    40.00     1.54     5.00        1    80.82
  C18_2            RECT_CLOSED          8.00    40.00     1.54     5.00        1    80.92
  C2               RECT_CLOSED          8.00    40.00     1.54     5.00        1    79.21
  C26              CIRCULAR             1.00     0.79     0.25     1.00        1     2.50
  C27              CIRCULAR             1.25     1.23     0.31     1.25        1     3.76
  C38              CIRCULAR             1.50     1.77     0.38     1.50        1     6.01
  C47              CIRCULAR             1.75     2.41     0.44     1.75        1     9.21
  C57              RECT_CLOSED          8.00    40.00     1.54     5.00        1    79.21
  C62              RECT_CLOSED          8.00    40.00     1.54     5.00        1    79.21
  C64              CIRCULAR             2.00     3.14     0.50     2.00        1    13.28
  C64_2            CIRCULAR             2.00     3.14     0.50     2.00        1    13.15
  C68_1            CIRCULAR             2.00     3.14     0.50     2.00        1    12.51
  C68_2            CIRCULAR             2.00     3.14     0.50     2.00        1    12.49
  C69              CIRCULAR             2.00     3.14     0.50     2.00        1    13.15
  C70_1            RECT_CLOSED         10.00    50.00     1.67     5.00        1    70.50
  C70_2            RECT_CLOSED         10.00    50.00     1.67     5.00        1   141.22
  C78              RECT_CLOSED          8.00    40.00     1.54     5.00        1    79.21
  C84              RECT_CLOSED          8.00    40.00     1.54     5.00        1    79.21
  C85              RECT_CLOSED          8.00    40.00     1.54     5.00        1    88.56
  C86              RECT_CLOSED          8.00    40.00     1.54     5.00        1    79.21
  C90_1            RECT_CLOSED          1.50     1.36     0.28     0.91        1     3.91
  C90_2            RECT_CLOSED          1.50     1.36     0.28     0.91        1     3.91
  C96              CIRCULAR             1.25     1.23     0.31     1.25        1     3.18
  
  
  ****************
  Analysis Options
  ****************
  Flow Units ............... CFS
  Process Models:
    Rainfall/Runoff ........ YES
    RDII ................... NO
    Snowmelt ............... NO
    Groundwater ............ NO
    Flow Routing ........... YES
    Ponding Allowed ........ NO
    Water Quality .......... NO
  Infiltration Method ...... GREEN_AMPT
  Flow Routing Method ...... DYNWAVE
  Surcharge Method ......... EXTRAN
  Starting Date ............ 06/01/2025 00:00:00
  Ending Date .............. 06/01/2025 23:45:00
  Antecedent Dry Days ...... 0.0
  Report Time Step ......... 00:05:00
  Wet Time Step ............ 00:05:00
  Dry Time Step ............ 00:05:00
  Routing Time Step ........ 5.00 sec
  Variable Time Step ....... YES
  Maximum Trials ........... 8
  Number of Threads ........ 2
  Head Tolerance ........... 0.005000 ft
  
  
  *********************
  Control Actions Taken
  *********************

  
  **************************        Volume         Depth
  Runoff Quantity Continuity     acre-feet        inches
  **************************     ---------       -------
  Initial LID Storage ......         0.053         0.004
  Total Precipitation ......        12.744         0.977
  Evaporation Loss .........         0.000         0.000
  Infiltration Loss ........         6.979         0.535
  Surface Runoff ...........         5.265         0.404
  Final Storage ............         0.553         0.042
  Continuity Error (%) .....        -0.004
  
  
  **************************        Volume        Volume
  Flow Routing Continuity        acre-feet      10^6 gal
  **************************     ---------     ---------
  Dry Weather Inflow .......         0.000         0.000
  Wet Weather Inflow .......         5.265         1.716
  Groundwater Inflow .......         0.000         0.000
  RDII Inflow ..............         0.000         0.000
  External Inflow ..........         0.000         0.000
  External Outflow .........         2.101         0.685
  Flooding Loss ............         0.000         0.000
  Evaporation Loss .........         0.000         0.000
  Exfiltration Loss ........         0.000         0.000
  Initial Stored Volume ....         1.620         0.528
  Final Stored Volume ......         4.784         1.559
  Continuity Error (%) .....         0.011
  
  
  *************************
  Highest Continuity Errors
  *************************
  Node J30 (6.21%)
  Node J103 (3.85%)
  Node J18 (3.83%)
  Node J1 (3.76%)
  Node J14 (3.69%)
  
  
  ***************************
  Time-Step Critical Elements
  ***************************
  Link C168 (36.43%)
  Link C85 (30.43%)
  Link C70_2 (27.41%)
  
  
  ********************************
  Highest Flow Instability Indexes
  ********************************
  Link C85 (6)
  Link C167 (5)
  Link C84 (4)
  Link C57 (4)
  Link C62 (4)
  
  
  *********************************
  Most Frequent Nonconverging Nodes
  *********************************
  Node outfall (1.30%)
  Node J8 (0.44%)
  Node J96 (0.37%)
  Node J26 (0.22%)
  Node J121 (0.14%)
  
  
  *************************
  Routing Time Step Summary
  *************************
  Minimum Time Step           :     0.50 sec
  Average Time Step           :     1.43 sec
  Maximum Time Step           :     5.00 sec
  % of Time in Steady State   :     0.00
  Average Iterations per Step :     2.14
  % of Steps Not Converging   :     1.30
  Time Step Frequencies       :
      5.000 -  3.155 sec      :     9.80 %
      3.155 -  1.991 sec      :    18.54 %
      1.991 -  1.256 sec      :    12.90 %
      1.256 -  0.792 sec      :     4.56 %
      0.792 -  0.500 sec      :    54.20 %
  
  
  ***************************
  Subcatchment Runoff Summary
  ***************************
  
  ------------------------------------------------------------------------------------------------------------------------------
                            Total      Total      Total      Total     Imperv       Perv      Total       Total     Peak  Runoff
                           Precip      Runon       Evap      Infil     Runoff     Runoff     Runoff      Runoff   Runoff   Coeff
  Subcatchment                 in         in         in         in         in         in         in    10^6 gal      CFS
  ------------------------------------------------------------------------------------------------------------------------------
  Sub_1                      0.98       0.00       0.00       0.60       0.52       0.00       0.36        0.03     0.41   0.370
  Sub_10                     0.98       0.00       0.00       0.28       0.72       0.16       0.67        0.04     0.74   0.684
  Sub_11                     0.98       0.00       0.00       0.58       0.54       0.00       0.38        0.01     0.11   0.384
  Sub_12                     0.98       0.00       0.00       0.64       0.46       0.00       0.32        0.05     0.74   0.330
  Sub_13                     0.98       0.00       0.00       0.63       0.47       0.00       0.33        0.04     0.62   0.337
  Sub_14                     0.98       0.00       0.00       0.66       0.48       0.00       0.23        0.09     1.51   0.239
  Sub_15                     0.98       0.00       0.00       0.62       0.54       0.00       0.24        0.02     0.38   0.241
  Sub_16                     0.98       0.00       0.00       0.57       0.45       0.07       0.39        0.03     0.56   0.396
  Sub_17                     0.98       0.00       0.00       0.69       0.39       0.00       0.27        0.04     0.58   0.276
  Sub_18                     0.98       0.00       0.00       0.40       0.74       0.03       0.55        0.02     0.38   0.560
  Sub_19                     0.98       0.00       0.00       0.41       0.73       0.02       0.53        0.03     0.52   0.547
  Sub_2                      0.98       0.00       0.00       0.42       0.60       0.11       0.53        0.07     1.29   0.546
  Sub_20                     0.98       0.00       0.00       0.58       0.54       0.00       0.38        0.12     1.87   0.384
  Sub_21                     0.98       0.00       0.00       0.55       0.67       0.02       0.31        0.02     0.32   0.314
  Sub_22                     0.98       0.00       0.00       0.36       0.65       0.14       0.59        0.02     0.29   0.605
  Sub_23                     0.98       0.00       0.00       0.56       0.59       0.00       0.37        0.03     0.48   0.384
  Sub_24                     0.98       0.00       0.00       0.57       0.55       0.00       0.39        0.06     1.00   0.397
  Sub_25                     0.98       0.00       0.00       0.64       0.40       0.05       0.32        0.03     0.51   0.331
  Sub_26                     0.98       0.00       0.00       0.56       0.56       0.00       0.39        0.07     1.10   0.404
  Sub_27                     0.98       0.00       0.00       0.51       0.63       0.00       0.44        0.03     0.44   0.451
  Sub_28                     0.98       0.00       0.00       0.54       0.66       0.00       0.34        0.10     1.53   0.345
  Sub_29                     0.98       0.00       0.00       0.44       0.71       0.01       0.51        0.06     0.97   0.518
  Sub_3                      0.98       0.00       0.00       0.33       0.68       0.15       0.62        0.05     0.90   0.635
  Sub_30                     0.98       0.00       0.00       0.46       0.70       0.00       0.49        0.03     0.56   0.499
  Sub_31                     0.98       0.00       0.00       0.48       0.68       0.00       0.47        0.04     0.60   0.485
  Sub_32                     0.98       0.00       0.00       0.43       0.72       0.01       0.51        0.11     1.67   0.526
  Sub_33                     0.98       0.00       0.00       0.34       0.78       0.06       0.61        0.05     0.94   0.620
  Sub_34                     0.98       0.00       0.00       0.53       0.61       0.00       0.43        0.03     0.42   0.438
  Sub_35                     0.98       0.00       0.00       0.49       0.66       0.00       0.46        0.03     0.55   0.471
  Sub_36                     0.98       0.00       0.00       0.63       0.47       0.00       0.33        0.01     0.20   0.337
  Sub_37                     0.98       0.00       0.00       0.42       0.73       0.02       0.53        0.03     0.44   0.546
  Sub_38                     0.98       0.00       0.00       0.47       0.69       0.00       0.48        0.06     0.91   0.492
  Sub_39                     0.98       0.00       0.00       0.59       0.53       0.00       0.37        0.12     1.90   0.377
  Sub_4                      0.98       0.00       0.00       0.36       0.77       0.05       0.59        0.03     0.62   0.603
  Sub_5                      0.98       0.00       0.00       0.10       0.90       0.21       0.84        0.05     0.78   0.860
  Sub_6                      0.98       0.00       0.00       0.31       0.80       0.08       0.64        0.03     0.53   0.651
  Sub_7                      0.98       0.00       0.00       0.45       0.71       0.01       0.50        0.01     0.18   0.511
  Sub_8                      0.98       0.00       0.00       0.71       0.37       0.00       0.26        0.00     0.04   0.263
  Sub_9                      0.98       0.00       0.00       0.64       0.40       0.05       0.32        0.04     0.68   0.330
  

  ***********************
  LID Performance Summary
  ***********************

  --------------------------------------------------------------------------------------------------------------------
                                         Total      Evap     Infil   Surface    Drain    Initial     Final  Continuity
                                        Inflow      Loss      Loss   Outflow   Outflow   Storage   Storage       Error
  Subcatchment      LID Control             in        in        in        in        in        in        in           %
  --------------------------------------------------------------------------------------------------------------------
  Sub_14            rain_garden           0.98      0.00      0.00      0.00      0.00      2.40      3.38       -0.00
  Sub_14            rain_barrel          66.43      0.00      0.00     32.18      0.00      0.00     34.25        0.00
  Sub_15            rain_garden           0.98      0.00      0.00      0.00      0.00      2.40      3.38       -0.00
  Sub_15            rain_barrel          64.97      0.00      0.00     30.72      0.00      0.00     34.25        0.00
  Sub_21            rain_barrel          66.49      0.00      0.00     32.24      0.00      0.00     34.25        0.00
  Sub_23            rain_garden           0.98      0.00      0.00      0.00      0.00      2.40      3.38       -0.00
  Sub_23            rain_barrel          66.20      0.00      0.00     31.95      0.00      0.00     34.25       -0.00
  Sub_28            rain_garden           1.02      0.00      0.00      0.00      0.00      2.40      3.42       -0.00
  Sub_28            rain_barrel          66.82      0.00      0.00     32.57      0.00      0.00     34.25       -0.00
  
  ******************
  Node Depth Summary
  ******************
  
  ---------------------------------------------------------------------------------
                                 Average  Maximum  Maximum  Time of Max    Reported
                                   Depth    Depth      HGL   Occurrence   Max Depth
  Node                 Type         Feet     Feet     Feet  days hr:min        Feet
  ---------------------------------------------------------------------------------
  J1                   JUNCTION     5.08     7.09     0.98     0  08:07        7.06
  J10                  JUNCTION     5.26     7.27     0.97     0  06:17        7.26
  J103                 JUNCTION     5.16     7.16     0.96     0  06:18        7.15
  J104                 JUNCTION     5.19     7.18     0.96     0  06:19        7.17
  J11                  JUNCTION     0.27     1.04     1.04     0  06:16        1.02
  J118                 JUNCTION     5.15     7.14     0.96     0  06:18        7.13
  J12                  JUNCTION     0.97     6.08     4.59     0  06:02        2.48
  J121                 JUNCTION     0.67     9.50     8.49     0  06:04        2.01
  J126                 JUNCTION     0.22     0.65     3.36     0  06:15        0.65
  J13                  JUNCTION     5.11     7.10     0.96     0  06:20        7.10
  J14                  JUNCTION     5.26     7.26     0.96     0  07:50        7.26
  J147                 JUNCTION     0.39     1.15     3.15     0  06:15        1.15
  J151                 JUNCTION     5.25     7.26     0.97     0  06:18        7.25
  J156                 JUNCTION     0.15     0.47     2.47     0  06:15        0.47
  J17                  JUNCTION     1.58     3.52     1.30     0  06:05        3.17
  J18                  JUNCTION     5.25     7.25     0.96     0  06:20        7.24
  J2                   JUNCTION     0.41     3.42     3.05     0  06:10        1.38
  J23                  JUNCTION     0.40     1.15     3.13     0  06:15        1.15
  J25                  JUNCTION     0.65     5.38     4.42     0  06:07        1.96
  J26                  JUNCTION     0.92     6.62     5.18     0  06:05        2.42
  J27                  JUNCTION     1.55     3.32     1.16     0  06:02        3.13
  J3                   JUNCTION     0.51     9.12     8.56     0  08:08        1.77
  J30                  JUNCTION     5.22     7.22     0.96     0  07:50        7.21
  J32                  JUNCTION     5.19     7.19     0.96     0  06:19        7.18
  J4                   JUNCTION     0.85     3.29     2.09     0  06:05        2.33
  J43                  JUNCTION     1.15     3.66     1.96     0  09:08        2.68
  J44                  JUNCTION     5.15     7.14     0.96     0  06:18        7.13
  J46                  JUNCTION     5.13     7.12     0.96     0  06:18        7.12
  J5                   JUNCTION     0.75     6.36     5.27     0  08:08        2.19
  J50                  JUNCTION     5.12     7.11     0.96     0  06:18        7.11
  J52                  JUNCTION     5.11     7.10     0.96     0  06:20        7.09
  J57                  JUNCTION     1.07     2.63     1.04     0  08:07        2.60
  J6                   JUNCTION     1.50     3.35     1.26     0  06:02        3.07
  J63                  JUNCTION     0.20     0.61     2.48     0  06:15        0.61
  J7                   JUNCTION     0.52     1.69     1.27     0  06:08        1.66
  J70                  JUNCTION     0.07     0.21     2.21     0  06:15        0.21
  J71                  JUNCTION     0.11     0.34     2.15     0  06:07        0.34
  J8                   JUNCTION     0.87     8.64     7.27     0  06:02        2.36
  J89                  JUNCTION     0.68     2.14     1.14     0  06:10        1.99
  J9                   JUNCTION     1.58     3.24     1.04     0  06:02        3.16
  J96                  JUNCTION     1.36     4.29     2.32     0  09:38        2.92
  outfall              OUTFALL      6.68     8.00     1.70     0  06:00        8.00
  J155                 STORAGE      3.69     4.86     0.86     0  08:04        4.86
  
  
  *******************
  Node Inflow Summary
  *******************
  
  -------------------------------------------------------------------------------------------------
                                  Maximum  Maximum                  Lateral       Total        Flow
                                  Lateral    Total  Time of Max      Inflow      Inflow     Balance
                                   Inflow   Inflow   Occurrence      Volume      Volume       Error
  Node                 Type           CFS      CFS  days hr:min    10^6 gal    10^6 gal     Percent
  -------------------------------------------------------------------------------------------------
  J1                   JUNCTION      1.10    12.34     0  06:10      0.0691       0.722       3.912
  J10                  JUNCTION      0.04    27.63     0  08:10     0.00257       0.881       3.652
  J103                 JUNCTION      0.48    17.10     0  06:09        0.03       0.972       4.007
  J104                 JUNCTION      0.00    37.22     0  08:50           0        1.68       1.828
  J11                  JUNCTION      0.62     0.62     0  06:15      0.0348      0.0349       0.692
  J118                 JUNCTION      0.73    16.83     0  06:09      0.0426       0.928       1.516
  J12                  JUNCTION      1.48     2.94     0  06:11      0.0862       0.153      -0.054
  J121                 JUNCTION      0.52     0.52     0  06:30      0.0313      0.0321      -0.004
  J126                 JUNCTION      1.67     1.67     0  06:15       0.106       0.106      -0.002
  J13                  JUNCTION      1.87    15.94     0  06:07       0.118        0.83       1.791
  J14                  JUNCTION      0.00    27.98     0  08:09           0       0.688       3.835
  J147                 JUNCTION      1.90     1.90     0  06:15       0.119       0.119       0.000
  J151                 JUNCTION      0.00    27.41     0  08:10           0        0.85       1.407
  J156                 JUNCTION      0.60     0.60     0  06:15      0.0374      0.0374      -0.002
  J17                  JUNCTION      0.18     1.74     0  06:06      0.0116      0.0962       1.691
  J18                  JUNCTION      0.00    27.00     0  08:10           0       0.811       3.986
  J2                   JUNCTION      0.62     0.63     0  06:01      0.0391      0.0396      -0.209
  J23                  JUNCTION      0.91     2.80     0  06:15       0.057       0.176       0.003
  J25                  JUNCTION      0.78     0.96     0  05:57       0.046      0.0479      -0.202
  J26                  JUNCTION      0.53     1.65     0  05:49      0.0292      0.0805       0.094
  J27                  JUNCTION      0.00     4.27     0  06:11           0       0.233       0.088
  J3                   JUNCTION      0.55     1.77     0  06:07      0.0346       0.114       0.062
  J30                  JUNCTION      0.58    23.68     0  08:09      0.0362       0.845       6.616
  J32                  JUNCTION      0.56    42.58     0  08:49      0.0295        1.11       3.227
  J4                   JUNCTION      1.00     7.89     0  06:09      0.0626       0.462       0.001
  J43                  JUNCTION      1.53     1.53     0  06:15      0.0972      0.0981       0.582
  J44                  JUNCTION      0.00    16.61     0  06:07           0         0.9       2.119
  J46                  JUNCTION      0.32    15.71     0  06:07      0.0207       0.822       2.848
  J5                   JUNCTION      0.42     2.45     0  06:08      0.0266       0.142       0.076
  J50                  JUNCTION      0.00    15.82     0  06:07           0       0.817       2.343
  J52                  JUNCTION      0.51    14.37     0  06:08      0.0297       0.733       3.426
  J57                  JUNCTION      0.56    10.79     0  06:09      0.0349       0.644       0.149
  J6                   JUNCTION      1.40     4.27     0  06:11      0.0765       0.232       0.420
  J63                  JUNCTION      0.94     5.42     0  06:15      0.0525       0.335      -0.022
  J7                   JUNCTION      0.97     6.38     0  06:15      0.0613       0.398      -0.021
  J70                  JUNCTION      0.20     0.20     0  06:15      0.0128      0.0128      -0.013
  J71                  JUNCTION      0.44     1.22     0  06:15      0.0271      0.0773      -0.114
  J8                   JUNCTION      0.38     1.60     0  06:04      0.0225      0.0558       2.829
  J89                  JUNCTION      0.41     1.77     0  06:00      0.0257      0.0666      -0.011
  J9                   JUNCTION      0.68     4.85     0  06:11      0.0396       0.272       0.165
  J96                  JUNCTION      0.38     0.65     0  09:38      0.0236      0.0271       0.623
  outfall              OUTFALL       0.90    28.23     0  08:09      0.0471       0.685       0.000
  J155                 STORAGE       1.51    26.74     0  06:19      0.0946        1.45      -0.003
  
  
  **********************
  Node Surcharge Summary
  **********************
  
  Surcharging occurs when water rises above the top of the highest conduit.
  ---------------------------------------------------------------------
                                               Max. Height   Min. Depth
                                   Hours       Above Crown    Below Rim
  Node                 Type      Surcharged           Feet         Feet
  ---------------------------------------------------------------------
  J11                  JUNCTION        0.39          0.041        3.525
  J12                  JUNCTION        2.45          4.079        0.000
  J121                 JUNCTION        2.45          7.996        0.000
  J17                  JUNCTION        3.82          1.765        3.218
  J2                   JUNCTION        1.22          2.168        4.266
  J25                  JUNCTION        1.58          3.628        4.040
  J26                  JUNCTION        2.72          4.870        1.320
  J27                  JUNCTION        3.40          1.324        1.579
  J3                   JUNCTION        0.99          7.621        0.000
  J4                   JUNCTION        1.76          1.292        4.335
  J43                  JUNCTION        3.44          2.159        4.991
  J5                   JUNCTION        2.59          4.862        2.604
  J6                   JUNCTION        3.29          1.347        2.487
  J8                   JUNCTION        2.96          7.137        0.000
  J89                  JUNCTION        0.07          0.135        4.126
  J9                   JUNCTION        3.44          1.235        1.205
  J96                  JUNCTION        3.78          2.792        0.861
  
  
  *********************
  Node Flooding Summary
  *********************
  
  Flooding refers to all water that overflows a node, whether it ponds or not.
  --------------------------------------------------------------------------
                                                             Total   Maximum
                                 Maximum   Time of Max       Flood    Ponded
                        Hours       Rate    Occurrence      Volume     Depth
  Node                 Flooded       CFS   days hr:min    10^6 gal      Feet
  --------------------------------------------------------------------------
  J12                     0.01      0.74      0  06:02       0.000     0.000
  J121                    0.01      0.16      0  06:04       0.000     0.000
  J3                      0.01      0.56      0  08:08       0.000     0.000
  J8                      0.01      1.06      0  06:04       0.000     0.000
  
  
  **********************
  Storage Volume Summary
  **********************
  
  ------------------------------------------------------------------------------------------------
                         Average    Avg   Evap  Exfil     Maximum    Max    Time of Max    Maximum
                          Volume   Pcnt   Pcnt   Pcnt      Volume   Pcnt     Occurrence    Outflow
  Storage Unit          1000 ft³   Full   Loss   Loss    1000 ft³   Full    days hr:min        CFS
  ------------------------------------------------------------------------------------------------
  J155                   141.169   44.8    0.0    0.0     193.578   61.5       0  08:04      13.81
  
  
  ***********************
  Outfall Loading Summary
  ***********************
  
  -----------------------------------------------------------
                         Flow       Avg       Max       Total
                         Freq      Flow      Flow      Volume
  Outfall Node           Pcnt       CFS       CFS    10^6 gal
  -----------------------------------------------------------
  outfall               69.76      3.88     28.23       0.685
  -----------------------------------------------------------
  System                69.76      3.88     28.23       0.685
  
  
  ********************
  Link Flow Summary
  ********************
  
  -----------------------------------------------------------------------------
                                 Maximum  Time of Max   Maximum    Max/    Max/
                                  |Flow|   Occurrence   |Veloc|    Full    Full
  Link                 Type          CFS  days hr:min    ft/sec    Flow   Depth
  -----------------------------------------------------------------------------
  C103_1               CONDUIT      1.22     0  06:07      2.76    0.11    0.61
  C103_3               CONDUIT      2.02     0  06:08      2.74    0.33    1.00
  C103_4               CONDUIT      2.45     0  06:08      2.91    0.40    1.00
  C108                 CONDUIT      0.20     0  06:15      1.03    0.06    0.22
  C110                 CONDUIT      1.57     0  05:55      2.80    0.28    1.00
  C125_1               CONDUIT     11.23     0  06:10      7.20    0.13    0.94
  C125_2               CONDUIT     13.96     0  06:08      1.02    0.18    0.89
  C147                 CONDUIT      6.89     0  06:09      4.03    0.52    0.92
  C147_2               CONDUIT      7.92     0  06:09      5.71    0.60    1.00
  C147_5               CONDUIT      5.42     0  06:15      4.59    0.20    0.57
  C15                  CONDUIT      1.56     0  06:06      2.48    0.17    1.00
  C152                 CONDUIT      2.80     0  06:15      3.03    1.83    0.70
  C152_1               CONDUIT      1.90     0  06:15      1.59    1.25    0.92
  C158                 CONDUIT      1.74     0  06:06      2.88    0.19    1.00
  C159                 CONDUIT     27.14     0  08:10      0.77    0.34    0.91
  C160                 CONDUIT     27.24     0  08:10      0.77    0.34    0.91
  C167                 CONDUIT     42.32     0  08:49      1.31    0.53    0.90
  C168                 CONDUIT     25.27     0  06:19     10.96    0.33    0.70
  C174                 CONDUIT      0.60     0  06:07      2.00    0.44    0.40
  C18_1                CONDUIT     14.07     0  06:07      0.96    0.17    0.89
  C18_2                CONDUIT     15.82     0  06:07      1.09    0.20    0.89
  C2                   CONDUIT     15.41     0  06:07      0.99    0.19    0.89
  C26                  CONDUIT      0.64     0  06:08      2.50    0.25    1.00
  C27                  CONDUIT      0.75     0  06:06      2.11    0.20    1.00
  C38                  CONDUIT      0.65     0  09:38      1.99    0.11    1.00
  C47                  CONDUIT      1.11     0  06:05      1.94    0.12    1.00
  C57                  CONDUIT     17.17     0  06:11      0.69    0.22    0.90
  C62                  CONDUIT     23.62     0  08:09      0.67    0.30    0.90
  C64                  CONDUIT      1.46     0  06:11      1.78    0.11    1.00
  C64_2                CONDUIT      2.94     0  06:11      2.63    0.22    1.00
  C68_1                CONDUIT      4.27     0  06:11      3.24    0.34    1.00
  C68_2                CONDUIT      4.27     0  06:11      3.22    0.34    1.00
  C69                  CONDUIT      4.85     0  06:11      3.83    0.37    1.00
  C70_1                CONDUIT     27.89     0  08:09      0.79    0.40    0.73
  C70_2                CONDUIT     28.17     0  08:09      0.80    0.20    0.76
  C78                  CONDUIT     27.00     0  08:10      0.77    0.34    0.90
  C84                  CONDUIT     16.62     0  06:09      0.92    0.21    0.89
  C85                  CONDUIT     16.10     0  06:09      0.90    0.18    0.89
  C86                  CONDUIT     15.10     0  06:07      0.90    0.19    0.89
  C90_1                CONDUIT      1.26     0  06:04      1.60    0.32    1.00
  C90_2                CONDUIT      0.94     0  06:05      2.45    0.24    1.00
  C96                  CONDUIT      1.67     0  06:15      2.69    0.53    0.50
  
  
  ***************************
  Flow Classification Summary
  ***************************
  
  -------------------------------------------------------------------------------------
                      Adjusted    ---------- Fraction of Time in Flow Class ---------- 
                       /Actual         Up    Down  Sub   Sup   Up    Down  Norm  Inlet 
  Conduit               Length    Dry  Dry   Dry   Crit  Crit  Crit  Crit  Ltd   Ctrl  
  -------------------------------------------------------------------------------------
  C103_1                  1.00   0.13  0.00  0.00  0.87  0.00  0.00  0.00  0.87  0.00
  C103_3                  1.00   0.13  0.00  0.00  0.87  0.00  0.00  0.00  0.71  0.00
  C103_4                  1.00   0.13  0.00  0.00  0.87  0.00  0.00  0.00  0.62  0.00
  C108                    1.00   0.13  0.00  0.00  0.87  0.00  0.00  0.00  0.70  0.00
  C110                    1.00   0.13  0.00  0.00  0.76  0.00  0.00  0.11  0.00  0.00
  C125_1                  1.00   0.13  0.00  0.00  0.77  0.00  0.00  0.10  0.02  0.00
  C125_2                  1.00   0.13  0.00  0.00  0.87  0.00  0.00  0.00  0.00  0.00
  C147                    1.00   0.13  0.00  0.00  0.87  0.00  0.00  0.00  0.69  0.00
  C147_2                  1.00   0.13  0.00  0.00  0.81  0.06  0.00  0.00  0.55  0.00
  C147_5                  1.00   0.13  0.00  0.00  0.81  0.07  0.00  0.00  0.87  0.00
  C15                     1.00   0.13  0.00  0.00  0.87  0.00  0.00  0.00  0.22  0.00
  C152                    1.00   0.13  0.00  0.00  0.87  0.00  0.00  0.00  0.00  0.00
  C152_1                  1.00   0.13  0.00  0.00  0.87  0.00  0.00  0.00  0.22  0.00
  C158                    1.00   0.13  0.00  0.00  0.76  0.00  0.00  0.11  0.00  0.00
  C159                    1.00   0.13  0.01  0.00  0.86  0.00  0.00  0.00  0.01  0.00
  C160                    1.00   0.14  0.02  0.00  0.85  0.00  0.00  0.00  0.00  0.00
  C167                    1.00   0.13  0.03  0.00  0.84  0.00  0.00  0.00  0.00  0.00
  C168                    1.00   0.24  0.01  0.00  0.07  0.05  0.06  0.57  0.05  0.00
  C174                    1.00   0.13  0.00  0.00  0.87  0.00  0.00  0.00  0.00  0.00
  C18_1                   1.00   0.13  0.00  0.00  0.87  0.00  0.00  0.00  0.02  0.00
  C18_2                   1.00   0.13  0.00  0.00  0.87  0.00  0.00  0.00  0.00  0.00
  C2                      1.00   0.13  0.02  0.00  0.85  0.00  0.00  0.00  0.01  0.00
  C26                     1.00   0.13  0.00  0.00  0.22  0.00  0.00  0.65  0.09  0.00
  C27                     1.00   0.13  0.00  0.00  0.87  0.00  0.00  0.00  0.17  0.00
  C38                     1.00   0.13  0.00  0.00  0.76  0.00  0.00  0.11  0.00  0.00
  C47                     1.00   0.13  0.00  0.00  0.87  0.00  0.00  0.00  0.68  0.00
  C57                     1.00   0.13  0.00  0.00  0.87  0.00  0.00  0.00  0.00  0.00
  C62                     1.00   0.13  0.00  0.00  0.87  0.00  0.00  0.00  0.00  0.00
  C64                     1.00   0.13  0.00  0.00  0.87  0.00  0.00  0.00  0.68  0.00
  C64_2                   1.00   0.13  0.00  0.00  0.87  0.00  0.00  0.00  0.18  0.00
  C68_1                   1.00   0.13  0.00  0.00  0.87  0.00  0.00  0.00  0.00  0.00
  C68_2                   1.00   0.13  0.00  0.00  0.87  0.00  0.00  0.00  0.04  0.00
  C69                     1.00   0.13  0.00  0.00  0.76  0.00  0.00  0.11  0.00  0.00
  C70_1                   1.00   0.13  0.02  0.00  0.85  0.00  0.00  0.00  0.00  0.00
  C70_2                   1.00   0.00  0.00  0.00  1.00  0.00  0.00  0.00  0.00  0.00
  C78                     1.00   0.13  0.00  0.00  0.87  0.00  0.00  0.00  0.01  0.00
  C84                     1.00   0.13  0.00  0.00  0.87  0.00  0.00  0.00  0.00  0.00
  C85                     1.00   0.13  0.01  0.00  0.86  0.00  0.00  0.00  0.00  0.00
  C86                     1.00   0.13  0.00  0.00  0.87  0.00  0.00  0.00  0.02  0.00
  C90_1                   1.00   0.13  0.00  0.00  0.87  0.00  0.00  0.00  0.64  0.00
  C90_2                   1.00   0.13  0.00  0.00  0.76  0.00  0.00  0.11  0.23  0.00
  C96                     1.00   0.13  0.00  0.00  0.87  0.00  0.00  0.00  0.16  0.00
  
  
  *************************
  Conduit Surcharge Summary
  *************************
  
  ----------------------------------------------------------------------------
                                                           Hours        Hours 
                         --------- Hours Full --------   Above Full   Capacity
  Conduit                Both Ends  Upstream  Dnstream   Normal Flow   Limited
  ----------------------------------------------------------------------------
  C103_1                      0.01      0.01      0.99      0.01         0.01
  C103_3                      0.99      0.99      2.59      0.01         0.01
  C103_4                      2.59      2.59      3.35      0.01         0.01
  C110                        3.44      3.44      4.00      0.01         0.01
  C125_1                      0.01      0.01      4.92      0.01         0.01
  C147                        0.01      0.01      1.76      0.01         0.01
  C147_2                      1.76      1.76      2.60      0.01         0.01
  C15                         2.72      2.72      3.82      0.01         0.01
  C152                        0.01      0.01      0.01      2.11         0.01
  C152_1                      0.01      0.01      0.01      1.26         0.01
  C158                        3.82      3.82      3.94      0.01         0.01
  C26                         0.39      0.39      3.59      0.01         0.01
  C27                         1.22      1.22      2.80      0.01         0.01
  C38                         3.78      3.78      4.21      0.01         0.01
  C47                         1.58      1.58      2.72      0.01         0.01
  C64                         0.07      0.07      2.45      0.01         0.01
  C64_2                       2.45      2.45      3.29      0.01         0.01
  C68_1                       3.29      3.29      3.40      0.01         0.01
  C68_2                       3.40      3.40      3.44      0.01         0.01
  C69                         3.44      3.44      3.59      0.01         0.01
  C90_1                       2.45      2.45      2.95      0.01         0.01
  C90_2                       2.95      2.95      4.22      0.01         0.01
  

  Analysis begun on:  Sat Jun 14 06:05:31 2025
  Analysis ended on:  Sat Jun 14 06:05:33 2025
  Total elapsed time: 00:00:02