
  EPA STORM WATER MANAGEMENT MODEL - VERSION 5.2 (Build 5.2.4)
  PYSWMM TOOLKIT API - VERSION v1.0 (2024-04-17)
  ------------------------------------------------------------

  WARNING 04: minimum elevation drop used for Conduit C70_2
  WARNING 04: minimum elevation drop used for Conduit C85
  
  *************
  Element Count
  *************
  Number of rain gages ...... 1
  Number of subcatchments ... 39
  Number of nodes ........... 43
  Number of links ........... 42
  Number of pollutants ...... 0
  Number of land uses ....... 0
  
  
  ****************
  Raingage Summary
  ****************
                                                      Data       Recording
  Name                 Data Source                    Type       Interval 
  ------------------------------------------------------------------------
  rain_gage            rain_gage_timeseries           INTENSITY   15 min.
  
  
  ********************
  Subcatchment Summary
  ********************
  Name                       Area     Width   %Imperv    %Slope Rain Gage            Outlet              
  -----------------------------------------------------------------------------------------------------------
  Sub_1                      2.62    272.79     55.00    3.9580 rain_gage            J89                 
  Sub_10                     2.19    296.41     77.00    2.4860 rain_gage            J12                 
  Sub_11                     0.67    130.53     57.00    5.0240 rain_gage            J6                  
  Sub_12                     5.31    283.97     49.00    3.4940 rain_gage            J12                 
  Sub_13                     4.38    341.66     50.00    2.9930 rain_gage            J2                  
  Sub_14                    14.91    412.40     52.00    3.9710 rain_gage            J155                
  Sub_15                     3.68    325.75     59.00    4.8800 rain_gage            J96                 
  Sub_16                     2.81    372.64     48.00    3.5770 rain_gage            J32                 
  Sub_17                     4.94    458.98     41.00    4.7410 rain_gage            J30                 
  Sub_18                     1.52    250.00     79.00    2.3090 rain_gage            J8                  
  Sub_19                     2.15    372.00     78.00    3.4760 rain_gage            J121                
  Sub_2                      4.81    406.94     64.00    3.8880 rain_gage            J6                  
  Sub_20                    11.54    261.37     57.00    3.9380 rain_gage            J13                 
  Sub_21                     2.48    159.75     71.00    3.2870 rain_gage            J46                 
  Sub_22                     0.94    200.00     69.00    3.2890 rain_gage            J118                
  Sub_23                     2.95    250.00     63.00    3.6520 rain_gage            J103                
  Sub_24                     5.93    412.94     59.00    3.2030 rain_gage            J4                  
  Sub_25                     3.38    300.00     42.00    3.1260 rain_gage            J52                 
  Sub_26                     6.44    408.85     60.00    3.6440 rain_gage            J1                  
  Sub_27                     2.29    250.00     67.00    3.4680 rain_gage            J118                
  Sub_28                    10.61    229.01     71.00    3.1810 rain_gage            J43                 
  Sub_29                     4.46    300.00     76.00    3.1960 rain_gage            J7                  
  Sub_3                      2.79    466.00     72.00    3.7700 rain_gage            outfall             
  Sub_30                     2.64    390.64     74.00    3.0810 rain_gage            J57                 
  Sub_31                     2.90    292.33     72.00    2.7780 rain_gage            J156                
  Sub_32                     7.63    310.58     77.00    2.8180 rain_gage            J126                
  Sub_33                     3.19    461.41     83.00    3.0790 rain_gage            J63                 
  Sub_34                     2.29    250.00     65.00    2.6240 rain_gage            J5                  
  Sub_35                     2.76    217.64     70.00    2.8170 rain_gage            J3                  
  Sub_36                     1.43    235.88     50.00    2.2300 rain_gage            J70                 
  Sub_37                     1.87    251.70     78.00    3.2300 rain_gage            J71                 
  Sub_38                     4.37    354.85     73.00    3.2410 rain_gage            J23                 
  Sub_39                    11.94    244.72     56.00    2.9530 rain_gage            J147                
  Sub_4                      2.18    358.74     82.00    3.9740 rain_gage            J11                 
  Sub_5                      2.02    268.69     96.00    3.0480 rain_gage            J25                 
  Sub_6                      1.69    314.60     85.00    3.7140 rain_gage            J26                 
  Sub_7                      0.86    147.58     75.00    3.3650 rain_gage            J17                 
  Sub_8                      0.37     73.53     39.00    3.1440 rain_gage            J10                 
  Sub_9                      4.52    345.46     42.00    3.8900 rain_gage            J9                  


  *******************
  LID Control Summary
  *******************
                                   No. of        Unit        Unit      % Area    % Imperv      % Perv
  Subcatchment     LID Control      Units        Area       Width     Covered     Treated     Treated
  ---------------------------------------------------------------------------------------------------
  Sub_18           rain_garden          5       85.00        0.00        0.64        9.61        0.00
  Sub_18           rain_barrel         25        2.95        0.00        0.11       28.58        0.00
  Sub_29           rain_garden         20       85.00        0.00        0.88       13.54        0.00
  Sub_29           rain_barrel         30        2.95        0.00        0.05       12.09        0.00
  Sub_4            rain_barrel         20        2.95        0.00        0.06       15.31        0.00
  
  
  ************
  Node Summary
  ************
                                           Invert      Max.    Ponded    External
  Name                 Type                 Elev.     Depth      Area    Inflow  
  -------------------------------------------------------------------------------
  J1                   JUNCTION             -6.11     11.75       0.0
  J10                  JUNCTION             -6.30     10.18       0.0
  J103                 JUNCTION             -6.19     10.56       0.0
  J104                 JUNCTION             -6.22     10.06       0.0
  J11                  JUNCTION              0.00      4.57       0.0
  J118                 JUNCTION             -6.18     12.12       0.0
  J12                  JUNCTION             -1.49      6.08       0.0
  J121                 JUNCTION             -1.01      9.50       0.0
  J126                 JUNCTION              2.71      5.20       0.0
  J13                  JUNCTION             -6.14     12.38       0.0
  J14                  JUNCTION             -6.30     10.18       0.0
  J147                 JUNCTION              2.00      4.84       0.0
  J151                 JUNCTION             -6.29     10.14       0.0
  J156                 JUNCTION              2.00      6.65       0.0
  J17                  JUNCTION             -2.21      6.73       0.0
  J18                  JUNCTION             -6.29     10.21       0.0
  J2                   JUNCTION             -0.37      7.68       0.0
  J23                  JUNCTION              1.98      4.73       0.0
  J25                  JUNCTION             -0.96      9.42       0.0
  J26                  JUNCTION             -1.44      7.94       0.0
  J27                  JUNCTION             -2.16      4.90       0.0
  J3                   JUNCTION             -0.57      9.12       0.0
  J30                  JUNCTION             -6.26      9.78       0.0
  J32                  JUNCTION             -6.23     10.58       0.0
  J4                   JUNCTION             -1.20      7.63       0.0
  J43                  JUNCTION             -1.70      8.65       0.0
  J44                  JUNCTION             -6.18     12.57       0.0
  J46                  JUNCTION             -6.16     11.43       0.0
  J5                   JUNCTION             -1.09      8.97       0.0
  J50                  JUNCTION             -6.15     11.76       0.0
  J52                  JUNCTION             -6.13     12.49       0.0
  J57                  JUNCTION             -1.59      8.82       0.0
  J6                   JUNCTION             -2.09      5.83       0.0
  J63                  JUNCTION              1.87      4.03       0.0
  J7                   JUNCTION             -0.42      6.53       0.0
  J70                  JUNCTION              2.00      7.06       0.0
  J71                  JUNCTION              1.80      7.50       0.0
  J8                   JUNCTION             -1.37      8.64       0.0
  J89                  JUNCTION             -1.00      6.26       0.0
  J9                   JUNCTION             -2.20      4.44       0.0
  J96                  JUNCTION             -1.97      5.15       0.0
  outfall              OUTFALL              -6.30     10.00       0.0
  J155                 STORAGE              -4.00      7.18       0.0
  
  
  ************
  Link Summary
  ************
  Name             From Node        To Node          Type            Length    %Slope Roughness
  ---------------------------------------------------------------------------------------------
  C103_1           J71              J3               CONDUIT          380.3    0.6233    0.0100
  C103_3           J3               J5               CONDUIT          261.0    0.2000    0.0100
  C103_4           J5               J57              CONDUIT          252.8    0.2000    0.0100
  C108             J70              J71              CONDUIT          121.0    0.1612    0.0100
  C110             J43              J44              CONDUIT          240.0    0.1667    0.0100
  C125_1           J57              J1               CONDUIT          257.8    0.9757    0.0100
  C125_2           J1               J52              CONDUIT          254.2    0.0100    0.0100
  C147             J7               J4               CONDUIT          393.0    0.2000    0.0100
  C147_2           J4               J57              CONDUIT          194.0    0.2000    0.0100
  C147_5           J63              J7               CONDUIT          273.4    0.8371    0.0100
  C15              J26              J17              CONDUIT          386.0    0.2000    0.0100
  C152             J23              J63              CONDUIT          346.2    0.0323    0.0100
  C152_1           J147             J23              CONDUIT           56.8    0.0317    0.0100
  C158             J17              J151             CONDUIT           40.0    0.2000    0.0100
  C159             J151             J10              CONDUIT           65.0    0.0100    0.0100
  C160             J18              J151             CONDUIT           65.0    0.0100    0.0100
  C167             J104             J32              CONDUIT           77.0    0.0100    0.0100
  C168             J155             J104             CONDUIT           15.0    6.6815    0.0100
  C174             J156             J71              CONDUIT          226.0    0.0863    0.0100
  C18_1            J52              J13              CONDUIT           24.9    0.0104    0.0100
  C18_2            J13              J50              CONDUIT          142.9    0.0104    0.0100
  C2               J50              J46              CONDUIT           71.3    0.0100    0.0100
  C26              J11              J14              CONDUIT          445.6    0.2917    0.0100
  C27              J2               J89              CONDUIT          314.9    0.2000    0.0100
  C38              J96              J32              CONDUIT          130.0    0.1938    0.0100
  C47              J25              J26              CONDUIT          241.0    0.2000    0.0100
  C57              J103             J104             CONDUIT          262.0    0.0100    0.0100
  C62              J32              J30              CONDUIT          305.9    0.0100    0.0100
  C64              J89              J12              CONDUIT          237.9    0.2039    0.0100
  C64_2            J12              J6               CONDUIT          303.5    0.2000    0.0100
  C68_1            J6               J27              CONDUIT           38.4    0.1808    0.0100
  C68_2            J27              J9               CONDUIT           19.2    0.1804    0.0100
  C69              J9               J10              CONDUIT           52.0    0.2000    0.0100
  C70_1            J10              J14              CONDUIT          279.9    0.0046    0.0100
  C70_2            J14              outfall          CONDUIT            5.5    0.0183    0.0100
  C78              J30              J18              CONDUIT          281.0    0.0100    0.0100
  C84              J118             J103             CONDUIT          163.0    0.0100    0.0100
  C85              J44              J118             CONDUIT            8.0    0.0125    0.0100
  C86              J46              J44              CONDUIT          189.0    0.0100    0.0100
  C90_1            J121             J8               CONDUIT          179.1    0.2000    0.0100
  C90_2            J8               J32              CONDUIT          429.7    0.2000    0.0100
  C96              J126             J63              CONDUIT          582.0    0.1436    0.0100
  
  
  *********************
  Cross Section Summary
  *********************
                                        Full     Full     Hyd.     Max.   No. of     Full
  Conduit          Shape               Depth     Area     Rad.    Width  Barrels     Flow
  ---------------------------------------------------------------------------------------
  C103_1           CIRCULAR             1.50     1.77     0.38     1.50        1    10.78
  C103_3           CIRCULAR             1.50     1.77     0.38     1.50        1     6.11
  C103_4           CIRCULAR             1.50     1.77     0.38     1.50        1     6.11
  C108             CIRCULAR             1.25     1.23     0.31     1.25        1     3.37
  C110             CIRCULAR             1.50     1.77     0.38     1.50        1     5.57
  C125_1           CIRCULAR             3.00     7.07     0.75     3.00        1    85.65
  C125_2           RECT_CLOSED          8.00    40.00     1.54     5.00        1    79.21
  C147             CIRCULAR             2.00     3.14     0.50     2.00        1    13.15
  C147_2           CIRCULAR             2.00     3.14     0.50     2.00        1    13.15
  C147_5           CIRCULAR             2.01     3.16     0.50     2.01        1    27.16
  C15              CIRCULAR             1.75     2.41     0.44     1.75        1     9.21
  C152             CIRCULAR             1.26     1.24     0.31     1.26        1     1.53
  C152_1           CIRCULAR             1.26     1.24     0.31     1.26        1     1.51
  C158             CIRCULAR             1.75     2.41     0.44     1.75        1     9.21
  C159             RECT_CLOSED          8.00    40.00     1.54     5.00        1    79.21
  C160             RECT_CLOSED          8.00    40.00     1.54     5.00        1    79.21
  C167             RECT_CLOSED          8.00    40.00     1.54     5.00        1    79.21
  C168             CIRCULAR             2.00     3.14     0.50     2.00        1    76.02
  C174             CIRCULAR             1.00     0.79     0.25     1.00        1     1.36
  C18_1            RECT_CLOSED          8.00    40.00     1.54     5.00        1    80.82
  C18_2            RECT_CLOSED          8.00    40.00     1.54     5.00        1    80.92
  C2               RECT_CLOSED          8.00    40.00     1.54     5.00        1    79.21
  C26              CIRCULAR             1.00     0.79     0.25     1.00        1     2.50
  C27              CIRCULAR             1.25     1.23     0.31     1.25        1     3.76
  C38              CIRCULAR             1.50     1.77     0.38     1.50        1     6.01
  C47              CIRCULAR             1.75     2.41     0.44     1.75        1     9.21
  C57              RECT_CLOSED          8.00    40.00     1.54     5.00        1    79.21
  C62              RECT_CLOSED          8.00    40.00     1.54     5.00        1    79.21
  C64              CIRCULAR             2.00     3.14     0.50     2.00        1    13.28
  C64_2            CIRCULAR             2.00     3.14     0.50     2.00        1    13.15
  C68_1            CIRCULAR             2.00     3.14     0.50     2.00        1    12.51
  C68_2            CIRCULAR             2.00     3.14     0.50     2.00        1    12.49
  C69              CIRCULAR             2.00     3.14     0.50     2.00        1    13.15
  C70_1            RECT_CLOSED         10.00    50.00     1.67     5.00        1    70.50
  C70_2            RECT_CLOSED         10.00    50.00     1.67     5.00        1   141.22
  C78              RECT_CLOSED          8.00    40.00     1.54     5.00        1    79.21
  C84              RECT_CLOSED          8.00    40.00     1.54     5.00        1    79.21
  C85              RECT_CLOSED          8.00    40.00     1.54     5.00        1    88.56
  C86              RECT_CLOSED          8.00    40.00     1.54     5.00        1    79.21
  C90_1            RECT_CLOSED          1.50     1.36     0.28     0.91        1     3.91
  C90_2            RECT_CLOSED          1.50     1.36     0.28     0.91        1     3.91
  C96              CIRCULAR             1.25     1.23     0.31     1.25        1     3.18
  
  
  ****************
  Analysis Options
  ****************
  Flow Units ............... CFS
  Process Models:
    Rainfall/Runoff ........ YES
    RDII ................... NO
    Snowmelt ............... NO
    Groundwater ............ NO
    Flow Routing ........... YES
    Ponding Allowed ........ NO
    Water Quality .......... NO
  Infiltration Method ...... GREEN_AMPT
  Flow Routing Method ...... DYNWAVE
  Surcharge Method ......... EXTRAN
  Starting Date ............ 06/01/2025 00:00:00
  Ending Date .............. 06/01/2025 23:45:00
  Antecedent Dry Days ...... 0.0
  Report Time Step ......... 00:01:00
  Wet Time Step ............ 00:05:00
  Dry Time Step ............ 00:05:00
  Routing Time Step ........ 5.00 sec
  Variable Time Step ....... YES
  Maximum Trials ........... 8
  Number of Threads ........ 2
  Head Tolerance ........... 0.005000 ft
  
  
  **************************        Volume         Depth
  Runoff Quantity Continuity     acre-feet        inches
  **************************     ---------       -------
  Initial LID Storage ......         0.007         0.001
  Total Precipitation ......        10.593         0.812
  Evaporation Loss .........         0.000         0.000
  Infiltration Loss ........         4.006         0.307
  Surface Runoff ...........         6.253         0.480
  Final Storage ............         0.346         0.027
  Continuity Error (%) .....        -0.037
  
  
  **************************        Volume        Volume
  Flow Routing Continuity        acre-feet      10^6 gal
  **************************     ---------     ---------
  Dry Weather Inflow .......         0.000         0.000
  Wet Weather Inflow .......         6.253         2.038
  Groundwater Inflow .......         0.000         0.000
  RDII Inflow ..............         0.000         0.000
  External Inflow ..........         9.429         3.073
  External Outflow .........         7.164         2.335
  Flooding Loss ............        27.289         8.893
  Evaporation Loss .........         0.000         0.000
  Exfiltration Loss ........         0.000         0.000
  Initial Stored Volume ....         1.621         0.528
  Final Stored Volume ......         5.579         1.818
  Continuity Error (%) .....      -131.360
  
  
  *************************
  Highest Continuity Errors
  *************************
  Node J26 (5.65%)
  Node J8 (4.62%)
  Node J1 (3.21%)
  Node J89 (3.00%)
  Node J17 (2.87%)
  
  
  ***************************
  Time-Step Critical Elements
  ***************************
  Link C70_2 (93.95%)
  Link C168 (5.24%)
  
  
  ********************************
  Highest Flow Instability Indexes
  ********************************
  Link C38 (3)
  Link C68_2 (3)
  Link C68_1 (2)
  Link C158 (2)
  Link C160 (2)
  
  
  *********************************
  Most Frequent Nonconverging Nodes
  *********************************
  Node outfall (1.58%)
  Node J26 (0.28%)
  Node J2 (0.23%)
  Node J5 (0.21%)
  Node J6 (0.21%)
  
  
  *************************
  Routing Time Step Summary
  *************************
  Minimum Time Step           :     0.30 sec
  Average Time Step           :     0.59 sec
  Maximum Time Step           :     5.00 sec
  % of Time in Steady State   :     0.00
  Average Iterations per Step :     2.17
  % of Steps Not Converging   :     1.58
  Time Step Frequencies       :
      5.000 -  3.155 sec      :     0.46 %
      3.155 -  1.991 sec      :     2.14 %
      1.991 -  1.256 sec      :     2.78 %
      1.256 -  0.792 sec      :     0.18 %
      0.792 -  0.500 sec      :    94.44 %
  
  
  ***************************
  Subcatchment Runoff Summary
  ***************************
  
  ------------------------------------------------------------------------------------------------------------------------------
                            Total      Total      Total      Total     Imperv       Perv      Total       Total     Peak  Runoff
                           Precip      Runon       Evap      Infil     Runoff     Runoff     Runoff      Runoff   Runoff   Coeff
  Subcatchment                 in         in         in         in         in         in         in    10^6 gal      CFS
  ------------------------------------------------------------------------------------------------------------------------------
  Sub_1                      0.81       0.00       0.00       0.37       0.43       0.00       0.43        0.03     0.49   0.525
  Sub_10                     0.81       0.00       0.00       0.19       0.60       0.00       0.60        0.04     0.57   0.735
  Sub_11                     0.81       0.00       0.00       0.35       0.44       0.00       0.44        0.01     0.13   0.544
  Sub_12                     0.81       0.00       0.00       0.41       0.38       0.00       0.38        0.05     0.88   0.468
  Sub_13                     0.81       0.00       0.00       0.41       0.39       0.00       0.39        0.05     0.74   0.477
  Sub_14                     0.81       0.00       0.00       0.39       0.40       0.00       0.40        0.16     2.62   0.496
  Sub_15                     0.81       0.00       0.00       0.33       0.46       0.00       0.46        0.05     0.74   0.563
  Sub_16                     0.81       0.00       0.00       0.42       0.37       0.00       0.37        0.03     0.46   0.458
  Sub_17                     0.81       0.00       0.00       0.48       0.32       0.00       0.32        0.04     0.69   0.391
  Sub_18                     0.81       0.00       0.00       0.20       0.61       0.00       0.52        0.02     0.36   0.640
  Sub_19                     0.81       0.00       0.00       0.18       0.61       0.00       0.61        0.04     0.57   0.745
  Sub_2                      0.81       0.00       0.00       0.29       0.50       0.00       0.50        0.06     1.04   0.611
  Sub_20                     0.81       0.00       0.00       0.35       0.44       0.00       0.44        0.14     2.22   0.544
  Sub_21                     0.81       0.00       0.00       0.24       0.55       0.00       0.55        0.04     0.60   0.678
  Sub_22                     0.81       0.00       0.00       0.25       0.54       0.00       0.54        0.01     0.22   0.659
  Sub_23                     0.81       0.00       0.00       0.30       0.49       0.00       0.49        0.04     0.63   0.601
  Sub_24                     0.81       0.00       0.00       0.33       0.46       0.00       0.46        0.07     1.19   0.563
  Sub_25                     0.81       0.00       0.00       0.47       0.33       0.00       0.33        0.03     0.48   0.401
  Sub_26                     0.81       0.00       0.00       0.32       0.47       0.00       0.47        0.08     1.31   0.573
  Sub_27                     0.81       0.00       0.00       0.27       0.52       0.00       0.52        0.03     0.52   0.640
  Sub_28                     0.81       0.00       0.00       0.24       0.55       0.00       0.55        0.16     2.52   0.677
  Sub_29                     0.81       0.00       0.00       0.23       0.58       0.00       0.50        0.06     0.98   0.615
  Sub_3                      0.81       0.00       0.00       0.23       0.56       0.00       0.56        0.04     0.68   0.687
  Sub_30                     0.81       0.00       0.00       0.21       0.57       0.00       0.57        0.04     0.66   0.706
  Sub_31                     0.81       0.00       0.00       0.23       0.56       0.00       0.56        0.04     0.71   0.687
  Sub_32                     0.81       0.00       0.00       0.19       0.60       0.00       0.60        0.12     1.98   0.735
  Sub_33                     0.81       0.00       0.00       0.14       0.64       0.00       0.64        0.06     0.90   0.792
  Sub_34                     0.81       0.00       0.00       0.28       0.50       0.00       0.50        0.03     0.50   0.620
  Sub_35                     0.81       0.00       0.00       0.24       0.54       0.00       0.54        0.04     0.65   0.668
  Sub_36                     0.81       0.00       0.00       0.41       0.39       0.00       0.39        0.02     0.24   0.477
  Sub_37                     0.81       0.00       0.00       0.18       0.60       0.00       0.60        0.03     0.49   0.745
  Sub_38                     0.81       0.00       0.00       0.22       0.57       0.00       0.57        0.07     1.08   0.697
  Sub_39                     0.81       0.00       0.00       0.36       0.43       0.00       0.43        0.14     2.25   0.534
  Sub_4                      0.81       0.00       0.00       0.15       0.64       0.00       0.61        0.04     0.60   0.756
  Sub_5                      0.81       0.00       0.00       0.03       0.74       0.00       0.74        0.04     0.66   0.916
  Sub_6                      0.81       0.00       0.00       0.12       0.66       0.00       0.66        0.03     0.49   0.811
  Sub_7                      0.81       0.00       0.00       0.20       0.58       0.00       0.58        0.01     0.22   0.716
  Sub_8                      0.81       0.00       0.00       0.50       0.30       0.00       0.30        0.00     0.05   0.372
  Sub_9                      0.81       0.00       0.00       0.47       0.33       0.00       0.33        0.04     0.64   0.401
  

  ***********************
  LID Performance Summary
  ***********************

  --------------------------------------------------------------------------------------------------------------------
                                         Total      Evap     Infil   Surface    Drain    Initial     Final  Continuity
                                        Inflow      Loss      Loss   Outflow   Outflow   Storage   Storage       Error
  Subcatchment      LID Control             in        in        in        in        in        in        in           %
  --------------------------------------------------------------------------------------------------------------------
  Sub_18            rain_garden           9.89      0.00      4.17      1.31      0.00      1.80      6.22       -0.14
  Sub_18            rain_barrel         155.56      0.00      0.00    121.31      0.00      0.00     34.25       -0.00
  Sub_29            rain_garden           9.84      0.00      4.20      1.21      0.00      1.80      6.25       -0.11
  Sub_29            rain_barrel         154.90      0.00      0.00    120.65      0.00      0.00     34.25       -0.00
  Sub_4             rain_barrel         156.35      0.00      0.00    122.10      0.00      0.00     34.25        0.00
  
  ******************
  Node Depth Summary
  ******************
  
  ---------------------------------------------------------------------------------
                                 Average  Maximum  Maximum  Time of Max    Reported
                                   Depth    Depth      HGL   Occurrence   Max Depth
  Node                 Type         Feet     Feet     Feet  days hr:min        Feet
  ---------------------------------------------------------------------------------
  J1                   JUNCTION     7.98    11.75     5.64     0  00:03        9.31
  J10                  JUNCTION     8.19    10.18     3.88     0  00:00       10.18
  J103                 JUNCTION     8.07    10.56     4.37     0  00:04        9.39
  J104                 JUNCTION     8.10    10.06     3.84     0  00:01        9.42
  J11                  JUNCTION     1.90     4.57     4.57     0  00:01        3.28
  J118                 JUNCTION     8.06    12.12     5.94     0  00:04        9.38
  J12                  JUNCTION     3.10     6.08     4.59     0  00:01        6.08
  J121                 JUNCTION     2.90     9.50     8.49     0  00:04        4.26
  J126                 JUNCTION     0.20     1.36     4.06     0  06:15        1.36
  J13                  JUNCTION     8.01    12.38     6.25     0  00:03       12.39
  J14                  JUNCTION     8.19    10.18     3.88     0  00:00       10.18
  J147                 JUNCTION     0.51     2.36     4.36     0  06:32        2.31
  J151                 JUNCTION     8.18    10.14     3.85     0  00:00        9.49
  J156                 JUNCTION     0.42     1.50     3.50     0  06:04        1.50
  J17                  JUNCTION     4.10     6.73     4.52     0  00:00        5.41
  J18                  JUNCTION     8.18    10.21     3.92     0  00:00        9.48
  J2                   JUNCTION     1.99     7.68     7.31     0  00:03        2.71
  J23                  JUNCTION     0.52     2.32     4.30     0  06:32        2.28
  J25                  JUNCTION     2.85     9.42     8.46     0  00:02        7.16
  J26                  JUNCTION     3.33     7.94     6.50     0  00:02        6.52
  J27                  JUNCTION     3.78     4.90     2.74     0  00:00        4.51
  J3                   JUNCTION     2.47     9.12     8.56     0  00:06        3.97
  J30                  JUNCTION     8.14     9.78     3.52     0  00:01        9.46
  J32                  JUNCTION     8.11     9.57     3.35     0  00:02        9.42
  J4                   JUNCTION     3.11     7.63     6.42     0  00:04        7.63
  J43                  JUNCTION     3.59     8.65     6.95     0  00:03        4.98
  J44                  JUNCTION     8.06    12.57     6.40     0  00:04        9.38
  J46                  JUNCTION     8.04    11.43     5.27     0  00:03        9.36
  J5                   JUNCTION     2.98     8.97     7.88     0  00:04        8.97
  J50                  JUNCTION     8.03    11.76     5.61     0  00:03        9.35
  J52                  JUNCTION     8.01    12.49     6.36     0  00:03       12.49
  J57                  JUNCTION     3.48     8.82     7.22     0  00:04        6.25
  J6                   JUNCTION     3.71     5.83     3.74     0  00:00        4.74
  J63                  JUNCTION     0.51     1.87     3.74     0  06:11        1.87
  J7                   JUNCTION     2.34     6.53     6.11     0  00:06        4.06
  J70                  JUNCTION     0.41     1.45     3.45     0  06:04        1.44
  J71                  JUNCTION     0.51     1.64     3.44     0  06:04        1.64
  J8                   JUNCTION     3.26     8.64     7.27     0  00:04        4.61
  J89                  JUNCTION     2.62     6.26     5.26     0  00:02        3.31
  J9                   JUNCTION     3.81     4.44     2.24     0  00:00        4.44
  J96                  JUNCTION     3.85     5.15     3.18     0  00:01        5.15
  outfall              OUTFALL      8.19     9.70     3.40     0  00:00        9.70
  J155                 STORAGE      5.60     7.18     3.18     0  05:39        7.18
  
  
  *******************
  Node Inflow Summary
  *******************
  
  -------------------------------------------------------------------------------------------------
                                  Maximum  Maximum                  Lateral       Total        Flow
                                  Lateral    Total  Time of Max      Inflow      Inflow     Balance
                                   Inflow   Inflow   Occurrence      Volume      Volume       Error
  Node                 Type           CFS      CFS  days hr:min    10^6 gal    10^6 gal     Percent
  -------------------------------------------------------------------------------------------------
  J1                   JUNCTION      1.31   326.24     0  00:03      0.0814        1.25       3.311
  J10                  JUNCTION      0.05   569.68     0  00:00     0.00302        13.8       0.102
  J103                 JUNCTION      0.63   347.53     0  00:02      0.0391        2.39       2.154
  J104                 JUNCTION      0.00   442.37     0  00:02           0        7.73       0.534
  J11                  JUNCTION      0.60     3.11     0  00:01      0.0363       0.041       1.043
  J118                 JUNCTION      0.74   389.30     0  00:02      0.0461        2.21      -0.325
  J12                  JUNCTION      1.45    18.88     0  00:01      0.0903        0.23       2.496
  J121                 JUNCTION      0.57     4.05     0  00:04      0.0354      0.0416       1.753
  J126                 JUNCTION      1.98     1.98     0  06:15       0.124       0.125       0.094
  J13                  JUNCTION      2.22   412.21     0  00:03       0.138        1.64       0.939
  J14                  JUNCTION      0.00  4556.31     0  00:00           0        12.7       0.337
  J147                 JUNCTION      2.25     2.25     0  06:15       0.141       0.141       0.005
  J151                 JUNCTION      0.00   584.88     0  00:01           0         8.2       0.185
  J156                 JUNCTION      0.71     0.71     0  06:15       0.044      0.0452       0.072
  J17                  JUNCTION      0.22    47.60     0  00:00      0.0136       0.129       2.958
  J18                  JUNCTION      0.00   578.46     0  00:01           0        8.03       0.505
  J2                   JUNCTION      0.74     5.79     0  00:03      0.0461      0.0567       1.495
  J23                  JUNCTION      1.08     3.33     0  06:15      0.0671       0.211       0.047
  J25                  JUNCTION      0.66    10.09     0  00:02      0.0408      0.0529       2.912
  J26                  JUNCTION      0.49    14.97     0  00:02      0.0302       0.105       5.986
  J27                  JUNCTION      0.00    33.85     0  00:00           0       0.313       0.114
  J3                   JUNCTION      0.65     7.57     0  00:05      0.0407       0.176       1.097
  J30                  JUNCTION      0.69   498.31     0  00:01      0.0427        7.91       0.889
  J32                  JUNCTION      0.46   433.60     0  00:01      0.0284        7.71       0.668
  J4                   JUNCTION      1.19    35.84     0  00:04      0.0737        0.68       0.778
  J43                  JUNCTION      2.52     6.93     0  00:02       0.158       0.161       1.063
  J44                  JUNCTION      0.00   371.52     0  00:02           0        2.09       1.877
  J46                  JUNCTION      0.60   375.12     0  00:02       0.037        1.83       1.623
  J5                   JUNCTION      0.50    15.92     0  00:04      0.0313        0.24       1.372
  J50                  JUNCTION      0.00   421.20     0  00:03           0        1.73       1.526
  J52                  JUNCTION      0.48   483.74     0  00:03      0.0299        1.41       2.516
  J57                  JUNCTION      0.66    63.90     0  00:04      0.0411        1.02       0.974
  J6                   JUNCTION      1.17    28.24     0  00:00      0.0728       0.312       1.315
  J63                  JUNCTION      0.90     6.21     0  06:15      0.0558       0.408      -0.025
  J7                   JUNCTION      0.98    12.58     0  00:05      0.0605       0.532       0.438
  J70                  JUNCTION      0.24     0.24     0  06:15      0.0151      0.0161       0.109
  J71                  JUNCTION      0.49     2.30     0  00:06      0.0308       0.102       0.009
  J8                   JUNCTION      0.36     5.02     0  00:04      0.0214      0.0737       4.847
  J89                  JUNCTION      0.49    14.94     0  00:02      0.0303       0.114       3.093
  J9                   JUNCTION      0.64    44.30     0  06:00        0.04        7.94       0.003
  J96                  JUNCTION      0.74     9.54     0  00:01      0.0458      0.0679       1.244
  outfall              OUTFALL       0.68  4556.31     0  00:00      0.0424        5.45       0.000
  J155                 STORAGE       2.62    63.41     0  00:05       0.163        3.82      -0.003
  
  
  **********************
  Node Surcharge Summary
  **********************
  
  Surcharging occurs when water rises above the top of the highest conduit.
  ---------------------------------------------------------------------
                                               Max. Height   Min. Depth
                                   Hours       Above Crown    Below Rim
  Node                 Type      Surcharged           Feet         Feet
  ---------------------------------------------------------------------
  J1                   JUNCTION       11.05          3.746        0.000
  J10                  JUNCTION        0.01          0.167        0.000
  J103                 JUNCTION       11.48          2.563        0.000
  J104                 JUNCTION       11.62          2.062        0.000
  J11                  JUNCTION       15.75          3.566        0.000
  J118                 JUNCTION       11.40          4.118        0.000
  J12                  JUNCTION       18.99          4.079        0.000
  J121                 JUNCTION       19.21          7.996        0.000
  J126                 JUNCTION        0.65          0.106        3.843
  J13                  JUNCTION       11.19          4.385        0.000
  J14                  JUNCTION        0.03          0.180        0.000
  J147                 JUNCTION        2.13          1.108        2.481
  J151                 JUNCTION       12.02          2.140        0.000
  J156                 JUNCTION        4.32          0.497        5.149
  J17                  JUNCTION       23.74          4.983        0.000
  J18                  JUNCTION       11.98          2.207        0.000
  J2                   JUNCTION       16.39          6.434        0.000
  J23                  JUNCTION        2.14          1.067        2.406
  J25                  JUNCTION       16.98          7.668        0.000
  J26                  JUNCTION       21.17          6.190        0.000
  J27                  JUNCTION       23.73          2.903        0.000
  J3                   JUNCTION       16.00          7.621        0.000
  J30                  JUNCTION       11.84          1.778        0.000
  J32                  JUNCTION       11.65          1.574        1.010
  J4                   JUNCTION       16.95          5.627        0.000
  J43                  JUNCTION       23.65          7.150        0.000
  J44                  JUNCTION       11.39          4.573        0.000
  J46                  JUNCTION       11.30          3.432        0.000
  J5                   JUNCTION       20.13          7.466        0.000
  J50                  JUNCTION       11.26          3.757        0.000
  J52                  JUNCTION       11.18          4.494        0.000
  J57                  JUNCTION       13.51          5.816        0.000
  J6                   JUNCTION       23.73          3.834        0.000
  J7                   JUNCTION       12.59          4.525        0.000
  J70                  JUNCTION        1.45          0.195        5.618
  J71                  JUNCTION        1.12          0.139        5.856
  J8                   JUNCTION       23.51          7.137        0.000
  J89                  JUNCTION       15.66          4.261        0.000
  J9                   JUNCTION       23.74          2.440        0.000
  J96                  JUNCTION       23.72          3.653        0.000
  
  
  *********************
  Node Flooding Summary
  *********************
  
  Flooding refers to all water that overflows a node, whether it ponds or not.
  --------------------------------------------------------------------------
                                                             Total   Maximum
                                 Maximum   Time of Max       Flood    Ponded
                        Hours       Rate    Occurrence      Volume     Depth
  Node                 Flooded       CFS   days hr:min    10^6 gal      Feet
  --------------------------------------------------------------------------
  J1                      0.01    307.28      0  00:03       0.020     0.000
  J10                     0.01    139.09      0  00:00       0.003     0.000
  J103                    0.01    135.00      0  00:04       0.005     0.000
  J104                    0.01    105.87      0  00:05       0.001     0.000
  J11                     0.01      3.05      0  00:01       0.000     0.000
  J118                    0.01     35.15      0  00:04       0.000     0.000
  J12                     0.01     13.04      0  00:01       0.001     0.000
  J121                    0.01      3.53      0  00:04       0.000     0.000
  J13                     0.01    253.87      0  00:03       0.004     0.000
  J14                     0.02   4306.51      0  00:00       0.720     0.000
  J151                    0.01    195.24      0  00:00       0.004     0.000
  J17                     0.01     45.26      0  00:00       0.001     0.000
  J18                     0.01    189.37      0  00:00       0.005     0.000
  J2                      0.01      5.68      0  00:03       0.000     0.000
  J25                     0.01      9.34      0  00:02       0.000     0.000
  J26                     0.01     10.60      0  00:02       0.001     0.000
  J27                     0.01     14.87      0  00:00       0.000     0.000
  J3                      0.01      6.06      0  00:06       0.000     0.000
  J30                     0.01    265.24      0  00:01       0.013     0.000
  J4                      0.01     33.08      0  00:04       0.002     0.000
  J43                     0.01      4.33      0  00:03       0.000     0.000
  J44                     0.01     42.96      0  00:04       0.000     0.000
  J46                     0.01    135.46      0  00:04       0.002     0.000
  J5                      0.01     14.49      0  00:04       0.000     0.000
  J50                     0.01    131.96      0  00:03       0.001     0.000
  J52                     0.01    334.54      0  00:03       0.006     0.000
  J57                     0.01     50.36      0  00:04       0.001     0.000
  J6                      0.01     21.34      0  00:00       0.001     0.000
  J7                      0.01      9.60      0  00:06       0.000     0.000
  J8                      0.01      2.40      0  00:04       0.000     0.000
  J89                     0.01     10.07      0  00:02       0.000     0.000
  J9                      9.28     44.30      0  06:00       7.861     0.000
  J96                     1.45      9.39      0  00:01       0.035     0.000
  J155                    1.35     10.76      0  06:04       0.202     0.000
  
  
  **********************
  Storage Volume Summary
  **********************
  
  ------------------------------------------------------------------------------------------------
                         Average    Avg   Evap  Exfil     Maximum    Max    Time of Max    Maximum
                          Volume   Pcnt   Pcnt   Pcnt      Volume   Pcnt     Occurrence    Outflow
  Storage Unit          1000 ft³   Full   Loss   Loss    1000 ft³   Full    days hr:min        CFS
  ------------------------------------------------------------------------------------------------
  J155                   233.842   74.2    0.0    0.0     315.001  100.0       0  05:39      18.21
  
  
  ***********************
  Outfall Loading Summary
  ***********************
  
  -----------------------------------------------------------
                         Flow       Avg       Max       Total
                         Freq      Flow      Flow      Volume
  Outfall Node           Pcnt       CFS       CFS    10^6 gal
  -----------------------------------------------------------
  outfall               63.05     15.64   4556.31       5.448
  -----------------------------------------------------------
  System                63.05     15.64   4556.31       5.448
  
  
  ********************
  Link Flow Summary
  ********************
  
  -----------------------------------------------------------------------------
                                 Maximum  Time of Max   Maximum    Max/    Max/
                                  |Flow|   Occurrence   |Veloc|    Full    Full
  Link                 Type          CFS  days hr:min    ft/sec    Flow   Depth
  -----------------------------------------------------------------------------
  C103_1               CONDUIT      2.30     0  00:06      2.48    0.21    1.00
  C103_3               CONDUIT      7.57     0  00:05      7.47    1.24    1.00
  C103_4               CONDUIT     15.92     0  00:04      9.42    2.61    1.00
  C108                 CONDUIT      0.24     0  06:14      0.65    0.07    1.00
  C110                 CONDUIT      6.93     0  00:02      5.13    1.24    1.00
  C125_1               CONDUIT     63.90     0  00:04      9.30    0.75    1.00
  C125_2               CONDUIT    326.24     0  00:03     10.52    4.12    1.00
  C147                 CONDUIT     12.58     0  00:05      6.74    0.96    1.00
  C147_2               CONDUIT     35.84     0  00:04     12.27    2.73    1.00
  C147_5               CONDUIT      6.22     0  06:16      3.14    0.23    0.97
  C15                  CONDUIT     14.97     0  00:02      6.25    1.63    1.00
  C152                 CONDUIT      3.33     0  06:15      2.68    2.17    1.00
  C152_1               CONDUIT      2.25     0  06:15      1.81    1.48    1.00
  C158                 CONDUIT     47.60     0  00:00     25.56    5.17    1.00
  C159                 CONDUIT    584.88     0  00:01     19.39    7.38    1.00
  C160                 CONDUIT    578.46     0  00:01     22.10    7.30    1.00
  C167                 CONDUIT    442.37     0  00:02     14.65    5.58    1.00
  C168                 CONDUIT     63.41     0  00:05     22.29    0.83    1.00
  C174                 CONDUIT      0.71     0  06:15      0.90    0.52    1.00
  C18_1                CONDUIT    483.74     0  00:03     23.35    5.99    1.00
  C18_2                CONDUIT    412.21     0  00:03     18.20    5.09    1.00
  C2                   CONDUIT    421.20     0  00:03     17.73    5.32    1.00
  C26                  CONDUIT      3.11     0  00:01     12.81    1.24    1.00
  C27                  CONDUIT      5.79     0  00:03      5.78    1.54    1.00
  C38                  CONDUIT      9.54     0  00:01      5.44    1.59    1.00
  C47                  CONDUIT     10.09     0  00:02      5.94    1.09    1.00
  C57                  CONDUIT    347.53     0  00:02     12.56    4.39    1.00
  C62                  CONDUIT    433.60     0  00:01     13.10    5.47    1.00
  C64                  CONDUIT     14.94     0  00:02      6.44    1.13    1.00
  C64_2                CONDUIT     18.88     0  00:01      6.94    1.44    1.00
  C68_1                CONDUIT     28.24     0  00:00     12.82    2.26    1.00
  C68_2                CONDUIT     33.85     0  00:00     11.39    2.71    1.00
  C69                  CONDUIT     43.81     0  00:01     13.95    3.33    1.00
  C70_1                CONDUIT    569.68     0  00:00     13.55    8.08    1.00
  C70_2                CONDUIT   4556.31     0  00:00    >50.00   32.26    0.99
  C78                  CONDUIT    498.31     0  00:01     14.19    6.29    1.00
  C84                  CONDUIT    389.30     0  00:02     12.00    4.91    1.00
  C85                  CONDUIT    371.52     0  00:02     18.33    4.19    1.00
  C86                  CONDUIT    375.12     0  00:02     11.33    4.74    1.00
  C90_1                CONDUIT      4.05     0  00:04      3.13    1.04    1.00
  C90_2                CONDUIT      5.02     0  00:04      3.99    1.28    1.00
  C96                  CONDUIT      1.98     0  06:15      1.62    0.62    1.00
  
  
  ***************************
  Flow Classification Summary
  ***************************
  
  -------------------------------------------------------------------------------------
                      Adjusted    ---------- Fraction of Time in Flow Class ---------- 
                       /Actual         Up    Down  Sub   Sup   Up    Down  Norm  Inlet 
  Conduit               Length    Dry  Dry   Dry   Crit  Crit  Crit  Crit  Ltd   Ctrl  
  -------------------------------------------------------------------------------------
  C103_1                  1.00   0.00  0.00  0.00  1.00  0.00  0.00  0.00  0.52  0.00
  C103_3                  1.00   0.00  0.00  0.00  1.00  0.00  0.00  0.00  0.00  0.00
  C103_4                  1.00   0.00  0.00  0.00  1.00  0.00  0.00  0.00  0.00  0.00
  C108                    1.00   0.00  0.08  0.00  0.91  0.00  0.00  0.00  0.56  0.00
  C110                    1.00   0.00  0.00  0.00  1.00  0.00  0.00  0.00  0.00  0.00
  C125_1                  1.00   0.00  0.00  0.00  1.00  0.00  0.00  0.00  0.00  0.00
  C125_2                  1.00   0.00  0.00  0.00  1.00  0.00  0.00  0.00  0.00  0.00
  C147                    1.00   0.00  0.00  0.00  1.00  0.00  0.00  0.00  0.01  0.00
  C147_2                  1.00   0.00  0.00  0.00  1.00  0.00  0.00  0.00  0.00  0.00
  C147_5                  1.00   0.00  0.00  0.00  1.00  0.00  0.00  0.00  0.54  0.00
  C15                     1.00   0.00  0.00  0.00  1.00  0.00  0.00  0.00  0.00  0.00
  C152                    1.00   0.00  0.00  0.00  1.00  0.00  0.00  0.00  0.04  0.00
  C152_1                  1.00   0.00  0.03  0.00  0.97  0.00  0.00  0.00  0.21  0.00
  C158                    1.00   0.00  0.00  0.00  1.00  0.00  0.00  0.00  0.00  0.00
  C159                    1.00   0.00  0.00  0.00  1.00  0.00  0.00  0.00  0.00  0.00
  C160                    1.00   0.00  0.00  0.00  1.00  0.00  0.00  0.00  0.00  0.00
  C167                    1.00   0.00  0.00  0.00  1.00  0.00  0.00  0.00  0.00  0.00
  C168                    1.00   0.00  0.00  0.00  0.85  0.01  0.13  0.00  0.10  0.00
  C174                    1.00   0.00  0.01  0.00  0.99  0.00  0.00  0.00  0.28  0.00
  C18_1                   1.00   0.00  0.00  0.00  1.00  0.00  0.00  0.00  0.00  0.00
  C18_2                   1.00   0.00  0.00  0.00  1.00  0.00  0.00  0.00  0.00  0.00
  C2                      1.00   0.00  0.00  0.00  1.00  0.00  0.00  0.00  0.00  0.00
  C26                     1.00   0.00  0.00  0.00  1.00  0.00  0.00  0.00  0.00  0.00
  C27                     1.00   0.00  0.00  0.00  1.00  0.00  0.00  0.00  0.00  0.00
  C38                     1.00   0.00  0.00  0.00  1.00  0.00  0.00  0.00  0.00  0.00
  C47                     1.00   0.00  0.00  0.00  1.00  0.00  0.00  0.00  0.00  0.00
  C57                     1.00   0.00  0.00  0.00  1.00  0.00  0.00  0.00  0.00  0.00
  C62                     1.00   0.00  0.00  0.00  1.00  0.00  0.00  0.00  0.00  0.00
  C64                     1.00   0.00  0.00  0.00  1.00  0.00  0.00  0.00  0.00  0.00
  C64_2                   1.00   0.00  0.00  0.00  1.00  0.00  0.00  0.00  0.00  0.00
  C68_1                   1.00   0.00  0.00  0.00  1.00  0.00  0.00  0.00  0.00  0.00
  C68_2                   1.00   0.00  0.00  0.00  1.00  0.00  0.00  0.00  0.00  0.00
  C69                     1.00   0.00  0.00  0.00  1.00  0.00  0.00  0.00  0.00  0.00
  C70_1                   1.00   0.00  0.00  0.00  1.00  0.00  0.00  0.00  0.00  0.00
  C70_2                   1.00   0.00  0.00  0.00  1.00  0.00  0.00  0.00  0.00  0.00
  C78                     1.00   0.00  0.00  0.00  1.00  0.00  0.00  0.00  0.00  0.00
  C84                     1.00   0.00  0.00  0.00  1.00  0.00  0.00  0.00  0.00  0.00
  C85                     1.00   0.00  0.00  0.00  1.00  0.00  0.00  0.00  0.00  0.00
  C86                     1.00   0.00  0.00  0.00  1.00  0.00  0.00  0.00  0.00  0.00
  C90_1                   1.00   0.00  0.00  0.00  1.00  0.00  0.00  0.00  0.00  0.00
  C90_2                   1.00   0.00  0.00  0.00  1.00  0.00  0.00  0.00  0.00  0.00
  C96                     1.00   0.00  0.12  0.00  0.87  0.00  0.00  0.00  0.48  0.00
  
  
  *************************
  Conduit Surcharge Summary
  *************************
  
  ----------------------------------------------------------------------------
                                                           Hours        Hours 
                         --------- Hours Full --------   Above Full   Capacity
  Conduit                Both Ends  Upstream  Dnstream   Normal Flow   Limited
  ----------------------------------------------------------------------------
  C103_1                      1.12      1.12     15.99      0.01         0.01
  C103_3                     15.99     15.99     20.13      0.02         0.01
  C103_4                     20.13     20.13     23.60      0.03         0.01
  C108                        1.45      1.45      3.73      0.01         0.01
  C110                       23.65     23.65     23.70      0.01         0.01
  C125_1                     13.51     13.51     23.69      0.01         0.01
  C125_2                     11.05     11.05     11.18      0.02         0.06
  C147                       12.63     12.63     16.95      0.01         0.01
  C147_2                     16.95     16.95     20.18      0.02         0.02
  C147_5                      0.01      0.01     12.59      0.01         0.01
  C15                        21.17     21.17     23.74      0.02         0.01
  C152                        2.07      2.14      3.18      2.34         2.07
  C152_1                      2.13      2.13      2.14      1.67         1.64
  C158                       23.74     23.74     23.74      0.03         0.02
  C159                       12.02     12.02     12.06      0.10         0.37
  C160                       11.97     11.98     12.02      0.09         0.42
  C167                       11.62     11.62     11.65      0.06         0.40
  C168                       10.45     10.45     15.69      0.01         0.01
  C174                        4.32      4.32      5.76      0.01         0.01
  C18_1                      11.18     11.18     11.19      0.02         0.46
  C18_2                      11.19     11.19     11.26      0.03         0.18
  C2                         11.26     11.26     11.30      0.03         0.37
  C26                        15.74     15.75     23.73      0.01         0.01
  C27                        16.39     16.39     22.32      0.01         0.01
  C38                        23.72     23.72     23.73      0.01         0.01
  C47                        16.98     16.98     21.17      0.01         0.01
  C57                        11.47     11.48     11.62      0.05         0.11
  C62                        11.65     11.65     11.84      0.07         0.05
  C64                        15.66     15.66     18.99      0.01         0.01
  C64_2                      18.99     18.99     23.73      0.02         0.01
  C68_1                      23.73     23.73     23.73      0.03         0.02
  C68_2                      23.73     23.73     23.74      0.04         0.04
  C69                        23.74     23.74     23.74      8.62         0.02
  C70_1                       0.01      0.01      0.02      0.11         0.01
  C70_2                       0.01      0.02      0.01      0.08         0.01
  C78                        11.82     11.84     11.98      0.08         0.18
  C84                        11.39     11.40     11.48      0.04         0.17
  C85                        11.39     11.39     11.40      0.04         0.52
  C86                        11.29     11.30     11.39      0.04         0.15
  C90_1                      19.21     19.21     23.51      0.01         0.01
  C90_2                      23.51     23.51     23.73      0.01         0.01
  C96                         0.65      0.65      3.26      0.01         0.01
  

  Analysis begun on:  Sun Jun  8 19:06:21 2025
  Analysis ended on:  Sun Jun  8 19:06:25 2025
  Total elapsed time: 00:00:04