
  EPA STORM WATER MANAGEMENT MODEL - VERSION 5.2 (Build 5.2.4)
  PYSWMM TOOLKIT API - VERSION v1.0 (2024-04-17)
  ------------------------------------------------------------

  WARNING 04: minimum elevation drop used for Conduit C70_2
  WARNING 04: minimum elevation drop used for Conduit C85
  
  *************
  Element Count
  *************
  Number of rain gages ...... 1
  Number of subcatchments ... 39
  Number of nodes ........... 43
  Number of links ........... 42
  Number of pollutants ...... 0
  Number of land uses ....... 0
  
  
  ****************
  Raingage Summary
  ****************
                                                      Data       Recording
  Name                 Data Source                    Type       Interval 
  ------------------------------------------------------------------------
  rain_gage            rain_gage_timeseries           INTENSITY   15 min.
  
  
  ********************
  Subcatchment Summary
  ********************
  Name                       Area     Width   %Imperv    %Slope Rain Gage            Outlet              
  -----------------------------------------------------------------------------------------------------------
  Sub_1                      2.62    272.79     55.00    3.9580 rain_gage            J89                 
  Sub_10                     2.19    296.41     77.00    2.4860 rain_gage            J12                 
  Sub_11                     0.67    130.53     57.00    5.0240 rain_gage            J6                  
  Sub_12                     5.31    283.97     49.00    3.4940 rain_gage            J12                 
  Sub_13                     4.38    341.66     50.00    2.9930 rain_gage            J2                  
  Sub_14                    14.91    412.40     52.00    3.9710 rain_gage            J155                
  Sub_15                     3.68    325.75     59.00    4.8800 rain_gage            J96                 
  Sub_16                     2.81    372.64     48.00    3.5770 rain_gage            J32                 
  Sub_17                     4.94    458.98     41.00    4.7410 rain_gage            J30                 
  Sub_18                     1.52    250.00     79.00    2.3090 rain_gage            J8                  
  Sub_19                     2.15    372.00     78.00    3.4760 rain_gage            J121                
  Sub_2                      4.81    406.94     64.00    3.8880 rain_gage            J6                  
  Sub_20                    11.54    261.37     57.00    3.9380 rain_gage            J13                 
  Sub_21                     2.48    159.75     71.00    3.2870 rain_gage            J46                 
  Sub_22                     0.94    200.00     69.00    3.2890 rain_gage            J118                
  Sub_23                     2.95    250.00     63.00    3.6520 rain_gage            J103                
  Sub_24                     5.93    412.94     59.00    3.2030 rain_gage            J4                  
  Sub_25                     3.38    300.00     42.00    3.1260 rain_gage            J52                 
  Sub_26                     6.44    408.85     60.00    3.6440 rain_gage            J1                  
  Sub_27                     2.29    250.00     67.00    3.4680 rain_gage            J118                
  Sub_28                    10.61    229.01     71.00    3.1810 rain_gage            J43                 
  Sub_29                     4.46    300.00     76.00    3.1960 rain_gage            J7                  
  Sub_3                      2.79    466.00     72.00    3.7700 rain_gage            outfall             
  Sub_30                     2.64    390.64     74.00    3.0810 rain_gage            J57                 
  Sub_31                     2.90    292.33     72.00    2.7780 rain_gage            J156                
  Sub_32                     7.63    310.58     77.00    2.8180 rain_gage            J126                
  Sub_33                     3.19    461.41     83.00    3.0790 rain_gage            J63                 
  Sub_34                     2.29    250.00     65.00    2.6240 rain_gage            J5                  
  Sub_35                     2.76    217.64     70.00    2.8170 rain_gage            J3                  
  Sub_36                     1.43    235.88     50.00    2.2300 rain_gage            J70                 
  Sub_37                     1.87    251.70     78.00    3.2300 rain_gage            J71                 
  Sub_38                     4.37    354.85     73.00    3.2410 rain_gage            J23                 
  Sub_39                    11.94    244.72     56.00    2.9530 rain_gage            J147                
  Sub_4                      2.18    358.74     82.00    3.9740 rain_gage            J11                 
  Sub_5                      2.02    268.69     96.00    3.0480 rain_gage            J25                 
  Sub_6                      1.69    314.60     85.00    3.7140 rain_gage            J26                 
  Sub_7                      0.86    147.58     75.00    3.3650 rain_gage            J17                 
  Sub_8                      0.37     73.53     39.00    3.1440 rain_gage            J10                 
  Sub_9                      4.52    345.46     42.00    3.8900 rain_gage            J9                  


  *******************
  LID Control Summary
  *******************
                                   No. of        Unit        Unit      % Area    % Imperv      % Perv
  Subcatchment     LID Control      Units        Area       Width     Covered     Treated     Treated
  ---------------------------------------------------------------------------------------------------
  Sub_1            rain_garden          1      100.00        0.00        0.09        0.00        0.00
  Sub_2            rain_barrel          1       50.00        0.00        0.02        0.00        0.00
  
  
  ************
  Node Summary
  ************
                                           Invert      Max.    Ponded    External
  Name                 Type                 Elev.     Depth      Area    Inflow  
  -------------------------------------------------------------------------------
  J1                   JUNCTION             -6.11     11.75       0.0
  J10                  JUNCTION             -6.30     10.18       0.0
  J103                 JUNCTION             -6.19     10.56       0.0
  J104                 JUNCTION             -6.22     10.06       0.0
  J11                  JUNCTION              0.00      4.57       0.0
  J118                 JUNCTION             -6.18     12.12       0.0
  J12                  JUNCTION             -1.49      6.08       0.0
  J121                 JUNCTION             -1.01      9.50       0.0
  J126                 JUNCTION              2.71      5.20       0.0
  J13                  JUNCTION             -6.14     12.38       0.0
  J14                  JUNCTION             -6.30     10.18       0.0
  J147                 JUNCTION              2.00      4.84       0.0
  J151                 JUNCTION             -6.29     10.14       0.0
  J156                 JUNCTION              2.00      6.65       0.0
  J17                  JUNCTION             -2.21      6.73       0.0
  J18                  JUNCTION             -6.29     10.21       0.0
  J2                   JUNCTION             -0.37      7.68       0.0
  J23                  JUNCTION              1.98      4.73       0.0
  J25                  JUNCTION             -0.96      9.42       0.0
  J26                  JUNCTION             -1.44      7.94       0.0
  J27                  JUNCTION             -2.16      4.90       0.0
  J3                   JUNCTION             -0.57      9.12       0.0
  J30                  JUNCTION             -6.26      9.78       0.0
  J32                  JUNCTION             -6.23     10.58       0.0
  J4                   JUNCTION             -1.20      7.63       0.0
  J43                  JUNCTION             -1.70      8.65       0.0
  J44                  JUNCTION             -6.18     12.57       0.0
  J46                  JUNCTION             -6.16     11.43       0.0
  J5                   JUNCTION             -1.09      8.97       0.0
  J50                  JUNCTION             -6.15     11.76       0.0
  J52                  JUNCTION             -6.13     12.49       0.0
  J57                  JUNCTION             -1.59      8.82       0.0
  J6                   JUNCTION             -2.09      5.83       0.0
  J63                  JUNCTION              1.87      4.03       0.0
  J7                   JUNCTION             -0.42      6.53       0.0
  J70                  JUNCTION              2.00      7.06       0.0
  J71                  JUNCTION              1.80      7.50       0.0
  J8                   JUNCTION             -1.37      8.64       0.0
  J89                  JUNCTION             -1.00      6.26       0.0
  J9                   JUNCTION             -2.20      4.44       0.0
  J96                  JUNCTION             -1.97      5.15       0.0
  outfall              OUTFALL              -6.30     10.00       0.0
  J155                 STORAGE              -4.00      7.18       0.0
  
  
  ************
  Link Summary
  ************
  Name             From Node        To Node          Type            Length    %Slope Roughness
  ---------------------------------------------------------------------------------------------
  C103_1           J71              J3               CONDUIT          380.3    0.6233    0.0100
  C103_3           J3               J5               CONDUIT          261.0    0.2000    0.0100
  C103_4           J5               J57              CONDUIT          252.8    0.2000    0.0100
  C108             J70              J71              CONDUIT          121.0    0.1612    0.0100
  C110             J43              J44              CONDUIT          240.0    0.1667    0.0100
  C125_1           J57              J1               CONDUIT          257.8    0.9757    0.0100
  C125_2           J1               J52              CONDUIT          254.2    0.0100    0.0100
  C147             J7               J4               CONDUIT          393.0    0.2000    0.0100
  C147_2           J4               J57              CONDUIT          194.0    0.2000    0.0100
  C147_5           J63              J7               CONDUIT          273.4    0.8371    0.0100
  C15              J26              J17              CONDUIT          386.0    0.2000    0.0100
  C152             J23              J63              CONDUIT          346.2    0.0323    0.0100
  C152_1           J147             J23              CONDUIT           56.8    0.0317    0.0100
  C158             J17              J151             CONDUIT           40.0    0.2000    0.0100
  C159             J151             J10              CONDUIT           65.0    0.0100    0.0100
  C160             J18              J151             CONDUIT           65.0    0.0100    0.0100
  C167             J104             J32              CONDUIT           77.0    0.0100    0.0100
  C168             J155             J104             CONDUIT           15.0    6.6815    0.0100
  C174             J156             J71              CONDUIT          226.0    0.0863    0.0100
  C18_1            J52              J13              CONDUIT           24.9    0.0104    0.0100
  C18_2            J13              J50              CONDUIT          142.9    0.0104    0.0100
  C2               J50              J46              CONDUIT           71.3    0.0100    0.0100
  C26              J11              J14              CONDUIT          445.6    0.2917    0.0100
  C27              J2               J89              CONDUIT          314.9    0.2000    0.0100
  C38              J96              J32              CONDUIT          130.0    0.1938    0.0100
  C47              J25              J26              CONDUIT          241.0    0.2000    0.0100
  C57              J103             J104             CONDUIT          262.0    0.0100    0.0100
  C62              J32              J30              CONDUIT          305.9    0.0100    0.0100
  C64              J89              J12              CONDUIT          237.9    0.2039    0.0100
  C64_2            J12              J6               CONDUIT          303.5    0.2000    0.0100
  C68_1            J6               J27              CONDUIT           38.4    0.1808    0.0100
  C68_2            J27              J9               CONDUIT           19.2    0.1804    0.0100
  C69              J9               J10              CONDUIT           52.0    0.2000    0.0100
  C70_1            J10              J14              CONDUIT          279.9    0.0046    0.0100
  C70_2            J14              outfall          CONDUIT            5.5    0.0183    0.0100
  C78              J30              J18              CONDUIT          281.0    0.0100    0.0100
  C84              J118             J103             CONDUIT          163.0    0.0100    0.0100
  C85              J44              J118             CONDUIT            8.0    0.0125    0.0100
  C86              J46              J44              CONDUIT          189.0    0.0100    0.0100
  C90_1            J121             J8               CONDUIT          179.1    0.2000    0.0100
  C90_2            J8               J32              CONDUIT          429.7    0.2000    0.0100
  C96              J126             J63              CONDUIT          582.0    0.1436    0.0100
  
  
  *********************
  Cross Section Summary
  *********************
                                        Full     Full     Hyd.     Max.   No. of     Full
  Conduit          Shape               Depth     Area     Rad.    Width  Barrels     Flow
  ---------------------------------------------------------------------------------------
  C103_1           CIRCULAR             1.50     1.77     0.38     1.50        1    10.78
  C103_3           CIRCULAR             1.50     1.77     0.38     1.50        1     6.11
  C103_4           CIRCULAR             1.50     1.77     0.38     1.50        1     6.11
  C108             CIRCULAR             1.25     1.23     0.31     1.25        1     3.37
  C110             CIRCULAR             1.50     1.77     0.38     1.50        1     5.57
  C125_1           CIRCULAR             3.00     7.07     0.75     3.00        1    85.65
  C125_2           RECT_CLOSED          8.00    40.00     1.54     5.00        1    79.21
  C147             CIRCULAR             2.00     3.14     0.50     2.00        1    13.15
  C147_2           CIRCULAR             2.00     3.14     0.50     2.00        1    13.15
  C147_5           CIRCULAR             2.01     3.16     0.50     2.01        1    27.16
  C15              CIRCULAR             1.75     2.41     0.44     1.75        1     9.21
  C152             CIRCULAR             1.26     1.24     0.31     1.26        1     1.53
  C152_1           CIRCULAR             1.26     1.24     0.31     1.26        1     1.51
  C158             CIRCULAR             1.75     2.41     0.44     1.75        1     9.21
  C159             RECT_CLOSED          8.00    40.00     1.54     5.00        1    79.21
  C160             RECT_CLOSED          8.00    40.00     1.54     5.00        1    79.21
  C167             RECT_CLOSED          8.00    40.00     1.54     5.00        1    79.21
  C168             CIRCULAR             2.00     3.14     0.50     2.00        1    76.02
  C174             CIRCULAR             1.00     0.79     0.25     1.00        1     1.36
  C18_1            RECT_CLOSED          8.00    40.00     1.54     5.00        1    80.82
  C18_2            RECT_CLOSED          8.00    40.00     1.54     5.00        1    80.92
  C2               RECT_CLOSED          8.00    40.00     1.54     5.00        1    79.21
  C26              CIRCULAR             1.00     0.79     0.25     1.00        1     2.50
  C27              CIRCULAR             1.25     1.23     0.31     1.25        1     3.76
  C38              CIRCULAR             1.50     1.77     0.38     1.50        1     6.01
  C47              CIRCULAR             1.75     2.41     0.44     1.75        1     9.21
  C57              RECT_CLOSED          8.00    40.00     1.54     5.00        1    79.21
  C62              RECT_CLOSED          8.00    40.00     1.54     5.00        1    79.21
  C64              CIRCULAR             2.00     3.14     0.50     2.00        1    13.28
  C64_2            CIRCULAR             2.00     3.14     0.50     2.00        1    13.15
  C68_1            CIRCULAR             2.00     3.14     0.50     2.00        1    12.51
  C68_2            CIRCULAR             2.00     3.14     0.50     2.00        1    12.49
  C69              CIRCULAR             2.00     3.14     0.50     2.00        1    13.15
  C70_1            RECT_CLOSED         10.00    50.00     1.67     5.00        1    70.50
  C70_2            RECT_CLOSED         10.00    50.00     1.67     5.00        1   141.22
  C78              RECT_CLOSED          8.00    40.00     1.54     5.00        1    79.21
  C84              RECT_CLOSED          8.00    40.00     1.54     5.00        1    79.21
  C85              RECT_CLOSED          8.00    40.00     1.54     5.00        1    88.56
  C86              RECT_CLOSED          8.00    40.00     1.54     5.00        1    79.21
  C90_1            RECT_CLOSED          1.50     1.36     0.28     0.91        1     3.91
  C90_2            RECT_CLOSED          1.50     1.36     0.28     0.91        1     3.91
  C96              CIRCULAR             1.25     1.23     0.31     1.25        1     3.18
  
  
  ****************
  Analysis Options
  ****************
  Flow Units ............... CFS
  Process Models:
    Rainfall/Runoff ........ YES
    RDII ................... NO
    Snowmelt ............... NO
    Groundwater ............ NO
    Flow Routing ........... YES
    Ponding Allowed ........ NO
    Water Quality .......... NO
  Infiltration Method ...... HORTON
  Flow Routing Method ...... DYNWAVE
  Surcharge Method ......... EXTRAN
  Starting Date ............ 06/01/2025 00:00:00
  Ending Date .............. 06/01/2025 23:45:00
  Antecedent Dry Days ...... 0.0
  Report Time Step ......... 00:01:00
  Wet Time Step ............ 00:05:00
  Dry Time Step ............ 00:05:00
  Routing Time Step ........ 5.00 sec
  Variable Time Step ....... YES
  Maximum Trials ........... 8
  Number of Threads ........ 2
  Head Tolerance ........... 0.005000 ft
  
  
  **************************        Volume         Depth
  Runoff Quantity Continuity     acre-feet        inches
  **************************     ---------       -------
  Initial LID Storage ......         0.001         0.000
  Total Precipitation ......         5.476         0.420
  Evaporation Loss .........         0.000         0.000
  Infiltration Loss ........         1.616         0.124
  Surface Runoff ...........         3.573         0.274
  Final Storage ............         0.307         0.024
  Continuity Error (%) .....        -0.339
  
  
  **************************        Volume        Volume
  Flow Routing Continuity        acre-feet      10^6 gal
  **************************     ---------     ---------
  Dry Weather Inflow .......         0.000         0.000
  Wet Weather Inflow .......         3.572         1.164
  Groundwater Inflow .......         0.000         0.000
  RDII Inflow ..............         0.000         0.000
  External Inflow ..........         0.000         0.000
  External Outflow .........         0.073         0.024
  Flooding Loss ............         0.000         0.000
  Evaporation Loss .........         0.000         0.000
  Exfiltration Loss ........         0.000         0.000
  Initial Stored Volume ....         1.621         0.528
  Final Stored Volume ......         5.143         1.676
  Continuity Error (%) .....        -0.462
  
  
  *************************
  Highest Continuity Errors
  *************************
  Node J14 (58.45%)
  Node J30 (31.25%)
  Node J18 (23.92%)
  Node J10 (19.00%)
  Node J32 (17.10%)
  
  
  ***************************
  Time-Step Critical Elements
  ***************************
  Link C168 (30.31%)
  Link C85 (29.42%)
  
  
  ********************************
  Highest Flow Instability Indexes
  ********************************
  Link C158 (40)
  Link C38 (40)
  Link C68_1 (38)
  Link C68_2 (38)
  Link C69 (37)
  
  
  *********************************
  Most Frequent Nonconverging Nodes
  *********************************
  Node outfall (5.20%)
  Node J27 (2.41%)
  Node J6 (2.02%)
  Node J9 (1.55%)
  Node J44 (0.94%)
  
  
  *************************
  Routing Time Step Summary
  *************************
  Minimum Time Step           :     0.50 sec
  Average Time Step           :     3.09 sec
  Maximum Time Step           :     5.00 sec
  % of Time in Steady State   :     0.00
  Average Iterations per Step :     3.67
  % of Steps Not Converging   :     5.20
  Time Step Frequencies       :
      5.000 -  3.155 sec      :    56.36 %
      3.155 -  1.991 sec      :    10.10 %
      1.991 -  1.256 sec      :     4.25 %
      1.256 -  0.792 sec      :     1.94 %
      0.792 -  0.500 sec      :    27.36 %
  
  
  ***************************
  Subcatchment Runoff Summary
  ***************************
  
  ------------------------------------------------------------------------------------------------------------------------------
                            Total      Total      Total      Total     Imperv       Perv      Total       Total     Peak  Runoff
                           Precip      Runon       Evap      Infil     Runoff     Runoff     Runoff      Runoff   Runoff   Coeff
  Subcatchment                 in         in         in         in         in         in         in    10^6 gal      CFS
  ------------------------------------------------------------------------------------------------------------------------------
  Sub_1                      0.42       0.00       0.00       0.14       0.21       0.05       0.26        0.02     1.01   0.623
  Sub_10                     0.42       0.00       0.00       0.07       0.30       0.03       0.33        0.02     1.04   0.776
  Sub_11                     0.42       0.00       0.00       0.12       0.22       0.06       0.28        0.01     0.29   0.658
  Sub_12                     0.42       0.00       0.00       0.17       0.19       0.04       0.23        0.03     1.69   0.550
  Sub_13                     0.42       0.00       0.00       0.16       0.19       0.05       0.24        0.03     1.49   0.571
  Sub_14                     0.42       0.00       0.00       0.17       0.20       0.03       0.23        0.09     4.56   0.549
  Sub_15                     0.42       0.00       0.00       0.13       0.23       0.05       0.27        0.03     1.48   0.651
  Sub_16                     0.42       0.00       0.00       0.16       0.18       0.06       0.24        0.02     1.04   0.580
  Sub_17                     0.42       0.00       0.00       0.19       0.16       0.06       0.22        0.03     1.59   0.520
  Sub_18                     0.42       0.00       0.00       0.06       0.30       0.03       0.33        0.01     0.74   0.791
  Sub_19                     0.42       0.00       0.00       0.06       0.30       0.03       0.33        0.02     1.05   0.788
  Sub_2                      0.42       0.00       0.00       0.11       0.25       0.04       0.29        0.04     2.00   0.682
  Sub_20                     0.42       0.00       0.00       0.15       0.22       0.03       0.25        0.08     3.69   0.584
  Sub_21                     0.42       0.00       0.00       0.09       0.27       0.03       0.30        0.02     1.07   0.724
  Sub_22                     0.42       0.00       0.00       0.09       0.27       0.04       0.31        0.01     0.44   0.733
  Sub_23                     0.42       0.00       0.00       0.11       0.24       0.04       0.28        0.02     1.21   0.674
  Sub_24                     0.42       0.00       0.00       0.13       0.23       0.04       0.27        0.04     2.25   0.636
  Sub_25                     0.42       0.00       0.00       0.19       0.16       0.06       0.22        0.02     1.04   0.516
  Sub_26                     0.42       0.00       0.00       0.13       0.23       0.04       0.27        0.05     2.46   0.643
  Sub_27                     0.42       0.00       0.00       0.10       0.26       0.04       0.30        0.02     1.00   0.708
  Sub_28                     0.42       0.00       0.00       0.10       0.27       0.02       0.29        0.08     3.90   0.696
  Sub_29                     0.42       0.00       0.00       0.07       0.29       0.03       0.32        0.04     2.02   0.761
  Sub_3                      0.42       0.00       0.00       0.08       0.28       0.04       0.31        0.02     1.32   0.750
  Sub_30                     0.42       0.00       0.00       0.08       0.28       0.03       0.32        0.02     1.25   0.759
  Sub_31                     0.42       0.00       0.00       0.08       0.28       0.03       0.31        0.02     1.31   0.739
  Sub_32                     0.42       0.00       0.00       0.07       0.30       0.02       0.32        0.07     3.30   0.757
  Sub_33                     0.42       0.00       0.00       0.05       0.32       0.02       0.34        0.03     1.59   0.816
  Sub_34                     0.42       0.00       0.00       0.11       0.25       0.04       0.29        0.02     0.97   0.691
  Sub_35                     0.42       0.00       0.00       0.09       0.27       0.03       0.30        0.02     1.19   0.720
  Sub_36                     0.42       0.00       0.00       0.15       0.19       0.06       0.25        0.01     0.54   0.594
  Sub_37                     0.42       0.00       0.00       0.06       0.30       0.03       0.33        0.02     0.90   0.784
  Sub_38                     0.42       0.00       0.00       0.08       0.28       0.03       0.31        0.04     1.96   0.743
  Sub_39                     0.42       0.00       0.00       0.16       0.21       0.02       0.24        0.08     3.60   0.566
  Sub_4                      0.42       0.00       0.00       0.05       0.32       0.03       0.34        0.02     1.09   0.812
  Sub_5                      0.42       0.00       0.00       0.01       0.37       0.01       0.38        0.02     1.05   0.894
  Sub_6                      0.42       0.00       0.00       0.04       0.33       0.02       0.35        0.02     0.85   0.831
  Sub_7                      0.42       0.00       0.00       0.07       0.29       0.03       0.32        0.01     0.41   0.768
  Sub_8                      0.42       0.00       0.00       0.18       0.15       0.07       0.22        0.00     0.13   0.530
  Sub_9                      0.42       0.00       0.00       0.19       0.16       0.05       0.22        0.03     1.39   0.514
  

  ***********************
  LID Performance Summary
  ***********************

  --------------------------------------------------------------------------------------------------------------------
                                         Total      Evap     Infil   Surface    Drain    Initial     Final  Continuity
                                        Inflow      Loss      Loss   Outflow   Outflow   Storage   Storage       Error
  Subcatchment      LID Control             in        in        in        in        in        in        in           %
  --------------------------------------------------------------------------------------------------------------------
  Sub_1             rain_garden           0.42      0.00      3.17      0.00      0.00      6.00      3.26       -0.13
  Sub_2             rain_barrel           0.00      0.00      0.00      0.00      0.00      0.00      0.00      100.00
  
  ******************
  Node Depth Summary
  ******************
  
  ---------------------------------------------------------------------------------
                                 Average  Maximum  Maximum  Time of Max    Reported
                                   Depth    Depth      HGL   Occurrence   Max Depth
  Node                 Type         Feet     Feet     Feet  days hr:min        Feet
  ---------------------------------------------------------------------------------
  J1                   JUNCTION     5.10     7.26     1.15     0  06:28        7.24
  J10                  JUNCTION     5.26     7.44     1.14     0  06:31        7.44
  J103                 JUNCTION     5.17     7.33     1.14     0  06:27        7.32
  J104                 JUNCTION     5.19     7.35     1.13     0  06:30        7.35
  J11                  JUNCTION     0.28     4.57     4.57     0  06:21        1.37
  J118                 JUNCTION     5.17     7.31     1.13     0  06:27        7.31
  J12                  JUNCTION     1.42     6.08     4.59     0  06:17        2.78
  J121                 JUNCTION     1.03     9.10     8.09     0  06:18        2.19
  J126                 JUNCTION     0.23     1.06     3.77     0  06:15        1.06
  J13                  JUNCTION     5.12     7.28     1.15     0  06:28        7.27
  J14                  JUNCTION     5.25     7.45     1.15     0  06:30        7.44
  J147                 JUNCTION     0.46     2.47     4.47     0  06:15        2.47
  J151                 JUNCTION     5.25     7.45     1.16     0  06:30        7.44
  J156                 JUNCTION     0.16     0.72     2.72     0  06:15        0.72
  J17                  JUNCTION     1.95     3.90     1.68     0  06:20        3.36
  J18                  JUNCTION     5.24     7.43     1.15     0  06:30        7.42
  J2                   JUNCTION     0.56     7.68     7.31     0  06:18        2.01
  J23                  JUNCTION     0.46     2.40     4.38     0  06:14        2.38
  J25                  JUNCTION     0.98     9.42     8.46     0  06:20        2.10
  J26                  JUNCTION     1.36     7.94     6.50     0  06:16        2.58
  J27                  JUNCTION     1.95     3.72     1.56     0  06:21        3.34
  J3                   JUNCTION     0.74     9.12     8.56     0  06:20        1.93
  J30                  JUNCTION     5.22     7.40     1.14     0  06:30        7.39
  J32                  JUNCTION     5.19     7.36     1.13     0  06:30        7.36
  J4                   JUNCTION     1.26     5.20     4.00     0  06:19        2.58
  J43                  JUNCTION     1.58     6.40     4.70     0  06:14        2.92
  J44                  JUNCTION     5.14     7.31     1.14     0  06:27        7.31
  J46                  JUNCTION     5.14     7.30     1.14     0  06:29        7.30
  J5                   JUNCTION     1.13     8.97     7.88     0  06:17        2.39
  J50                  JUNCTION     5.13     7.30     1.15     0  06:28        7.29
  J52                  JUNCTION     5.12     7.28     1.14     0  06:28        7.26
  J57                  JUNCTION     1.50     2.79     1.20     0  06:29        2.79
  J6                   JUNCTION     1.90     3.97     1.88     0  06:17        3.28
  J63                  JUNCTION     0.21     0.86     2.73     0  06:15        0.86
  J7                   JUNCTION     0.71     6.53     6.11     0  06:22        2.15
  J70                  JUNCTION     0.07     0.36     2.36     0  06:15        0.36
  J71                  JUNCTION     0.11     0.51     2.32     0  06:15        0.51
  J8                   JUNCTION     1.32     8.64     7.27     0  06:16        2.54
  J89                  JUNCTION     1.03     6.26     5.26     0  06:21        2.39
  J9                   JUNCTION     1.98     3.64     1.44     0  06:21        3.37
  J96                  JUNCTION     1.76     3.49     1.53     0  06:14        3.10
  outfall              OUTFALL      8.39     9.50     3.20     0  06:00        9.50
  J155                 STORAGE      3.17     3.82    -0.18     0  23:45        3.82
  
  
  *******************
  Node Inflow Summary
  *******************
  
  -------------------------------------------------------------------------------------------------
                                  Maximum  Maximum                  Lateral       Total        Flow
                                  Lateral    Total  Time of Max      Inflow      Inflow     Balance
                                   Inflow   Inflow   Occurrence      Volume      Volume       Error
  Node                 Type           CFS      CFS  days hr:min    10^6 gal    10^6 gal     Percent
  -------------------------------------------------------------------------------------------------
  J1                   JUNCTION      2.46    22.59     0  06:14      0.0472       0.439       9.172
  J10                  JUNCTION      0.13     8.73     0  06:15     0.00222        0.21      23.455
  J103                 JUNCTION      1.21    24.44     0  06:24      0.0226         0.5      12.189
  J104                 JUNCTION      0.00    32.16     0  06:29           0         0.6       7.393
  J11                  JUNCTION      1.09     1.09     0  06:15      0.0202      0.0212       3.468
  J118                 JUNCTION      1.44    23.81     0  06:24      0.0264       0.487       2.936
  J12                  JUNCTION      2.73     5.17     0  06:14      0.0527        0.11       5.084
  J121                 JUNCTION      1.05     1.69     0  06:16      0.0193      0.0201       3.628
  J126                 JUNCTION      3.30     3.30     0  06:15      0.0659      0.0659      -0.017
  J13                  JUNCTION      3.69    22.70     0  06:11      0.0768       0.467       4.452
  J14                  JUNCTION      0.00     5.85     0  06:15           0       0.061     140.645
  J147                 JUNCTION      3.60     3.60     0  06:15      0.0771      0.0771       0.002
  J151                 JUNCTION      0.00    10.83     0  06:22           0       0.182       9.610
  J156                 JUNCTION      1.31     1.31     0  06:15      0.0245      0.0245      -0.012
  J17                  JUNCTION      0.41     3.31     0  06:10     0.00752      0.0481      11.116
  J18                  JUNCTION      0.00    11.43     0  06:16           0       0.174      31.435
  J2                   JUNCTION      1.49     2.15     0  06:18      0.0285       0.032       1.863
  J23                  JUNCTION      1.96     5.56     0  06:15       0.037       0.114       0.013
  J25                  JUNCTION      1.05     2.79     0  06:15      0.0205      0.0229       6.648
  J26                  JUNCTION      0.85     3.72     0  06:14       0.016      0.0418      14.028
  J27                  JUNCTION      0.00     6.96     0  06:10           0       0.138      -8.240
  J3                   JUNCTION      1.19     3.91     0  06:15      0.0227      0.0758       2.490
  J30                  JUNCTION      1.59    15.71     0  06:16      0.0293       0.225      45.446
  J32                  JUNCTION      1.04    17.35     0  06:16      0.0186       0.287      20.626
  J4                   JUNCTION      2.25    14.49     0  06:15       0.043       0.292       1.669
  J43                  JUNCTION      3.90     3.90     0  06:15      0.0842      0.0842       2.914
  J44                  JUNCTION      0.00    23.75     0  06:22           0       0.491       6.599
  J46                  JUNCTION      1.07    21.47     0  06:22      0.0204       0.439       6.672
  J5                   JUNCTION      0.97     4.83     0  06:15       0.018      0.0945       3.161
  J50                  JUNCTION      0.00    21.19     0  06:15           0       0.447       5.912
  J52                  JUNCTION      1.04    21.48     0  06:11      0.0199       0.423       8.307
  J57                  JUNCTION      1.25    20.32     0  06:14      0.0228       0.401       2.450
  J6                   JUNCTION      2.29     7.22     0  06:12      0.0424       0.148       5.282
  J63                  JUNCTION      1.59    10.40     0  06:15      0.0297        0.21      -0.046
  J7                   JUNCTION      2.02    12.35     0  06:15      0.0387       0.249       0.753
  J70                  JUNCTION      0.54     0.54     0  06:15     0.00969     0.00969      -0.036
  J71                  JUNCTION      0.90     2.74     0  06:15      0.0167      0.0509      -0.238
  J8                   JUNCTION      0.74     1.91     0  06:16      0.0137      0.0349      13.250
  J89                  JUNCTION      1.01     3.77     0  06:16      0.0186      0.0573       5.655
  J9                   JUNCTION      1.39     8.22     0  06:10      0.0265       0.173      -0.578
  J96                  JUNCTION      1.48     1.48     0  06:15      0.0273      0.0286       3.939
  outfall              OUTFALL       1.32     1.32     0  06:15      0.0239      0.0239       0.000
  J155                 STORAGE       4.56    34.57     0  06:30      0.0934        1.09      -0.071
  
  
  **********************
  Node Surcharge Summary
  **********************
  
  Surcharging occurs when water rises above the top of the highest conduit.
  ---------------------------------------------------------------------
                                               Max. Height   Min. Depth
                                   Hours       Above Crown    Below Rim
  Node                 Type      Surcharged           Feet         Feet
  ---------------------------------------------------------------------
  J11                  JUNCTION        0.26          3.566        0.000
  J12                  JUNCTION        0.65          4.079        0.000
  J121                 JUNCTION        0.68          7.598        0.398
  J147                 JUNCTION        0.63          1.212        2.377
  J17                  JUNCTION       17.52          2.148        2.835
  J2                   JUNCTION        0.31          6.434        0.000
  J23                  JUNCTION        0.62          1.143        2.330
  J25                  JUNCTION        0.37          7.668        0.000
  J26                  JUNCTION        1.54          6.190        0.000
  J27                  JUNCTION       17.49          1.724        1.179
  J3                   JUNCTION        0.31          7.621        0.000
  J4                   JUNCTION        0.41          3.203        2.424
  J43                  JUNCTION       17.52          4.901        2.249
  J5                   JUNCTION        1.08          7.466        0.000
  J6                   JUNCTION       17.49          1.968        1.866
  J7                   JUNCTION        0.09          4.525        0.000
  J8                   JUNCTION        3.61          7.137        0.000
  J89                  JUNCTION        0.23          4.261        0.000
  J9                   JUNCTION       17.50          1.640        0.800
  J96                  JUNCTION       17.52          1.994        1.659
  
  
  *********************
  Node Flooding Summary
  *********************
  
  Flooding refers to all water that overflows a node, whether it ponds or not.
  --------------------------------------------------------------------------
                                                             Total   Maximum
                                 Maximum   Time of Max       Flood    Ponded
                        Hours       Rate    Occurrence      Volume     Depth
  Node                 Flooded       CFS   days hr:min    10^6 gal      Feet
  --------------------------------------------------------------------------
  J11                     0.01      0.79      0  06:21       0.000     0.000
  J12                     0.01      3.44      0  06:17       0.000     0.000
  J2                      0.01      1.97      0  06:18       0.000     0.000
  J25                     0.01      1.49      0  06:20       0.000     0.000
  J26                     0.01      3.11      0  06:16       0.000     0.000
  J3                      0.01      1.46      0  06:20       0.000     0.000
  J5                      0.01      1.66      0  06:17       0.000     0.000
  J7                      0.01      0.79      0  06:22       0.000     0.000
  J8                      0.01      1.17      0  06:16       0.000     0.000
  J89                     0.01      0.64      0  06:21       0.000     0.000
  
  
  **********************
  Storage Volume Summary
  **********************
  
  ------------------------------------------------------------------------------------------------
                         Average    Avg   Evap  Exfil     Maximum    Max    Time of Max    Maximum
                          Volume   Pcnt   Pcnt   Pcnt      Volume   Pcnt     Occurrence    Outflow
  Storage Unit          1000 ft³   Full   Loss   Loss    1000 ft³   Full    days hr:min        CFS
  ------------------------------------------------------------------------------------------------
  J155                   118.392   37.6    0.0    0.0     145.708   46.3       0  23:45       0.00
  
  
  ***********************
  Outfall Loading Summary
  ***********************
  
  -----------------------------------------------------------
                         Flow       Avg       Max       Total
                         Freq      Flow      Flow      Volume
  Outfall Node           Pcnt       CFS       CFS    10^6 gal
  -----------------------------------------------------------
  outfall               40.09      0.48      1.32       0.024
  -----------------------------------------------------------
  System                40.09      0.48      1.32       0.024
  
  
  ********************
  Link Flow Summary
  ********************
  
  -----------------------------------------------------------------------------
                                 Maximum  Time of Max   Maximum    Max/    Max/
                                  |Flow|   Occurrence   |Veloc|    Full    Full
  Link                 Type          CFS  days hr:min    ft/sec    Flow   Depth
  -----------------------------------------------------------------------------
  C103_1               CONDUIT      2.72     0  06:15      3.41    0.25    0.65
  C103_3               CONDUIT      3.89     0  06:16      3.34    0.64    1.00
  C103_4               CONDUIT      4.80     0  06:15      3.82    0.79    1.00
  C108                 CONDUIT      0.54     0  06:15      1.40    0.16    0.35
  C110                 CONDUIT      4.02     0  06:14      3.78    0.72    1.00
  C125_1               CONDUIT     20.16     0  06:14      9.35    0.24    0.97
  C125_2               CONDUIT     20.51     0  06:11      1.87    0.26    0.91
  C147                 CONDUIT     12.32     0  06:15      4.98    0.94    1.00
  C147_2               CONDUIT     14.30     0  06:14      7.29    1.09    1.00
  C147_5               CONDUIT     10.34     0  06:15      5.32    0.38    0.68
  C15                  CONDUIT      2.80     0  06:18      2.90    0.30    1.00
  C152                 CONDUIT      5.56     0  06:15      4.99    3.63    0.84
  C152_1               CONDUIT      3.60     0  06:15      2.90    2.38    1.00
  C158                 CONDUIT      3.12     0  06:18      3.47    0.34    1.00
  C159                 CONDUIT      9.56     0  06:22      0.72    0.12    0.93
  C160                 CONDUIT     10.80     0  06:26      0.93    0.14    0.93
  C167                 CONDUIT     15.00     0  06:16      0.86    0.19    0.92
  C168                 CONDUIT     31.68     0  06:30     12.99    0.42    0.73
  C174                 CONDUIT      1.30     0  06:15      2.56    0.96    0.62
  C18_1                CONDUIT     19.18     0  06:11      1.74    0.24    0.91
  C18_2                CONDUIT     21.19     0  06:15      1.94    0.26    0.91
  C2                   CONDUIT     20.75     0  06:22      1.73    0.26    0.91
  C26                  CONDUIT      1.08     0  06:15      3.14    0.43    1.00
  C27                  CONDUIT      1.47     0  06:15      2.74    0.39    1.00
  C38                  CONDUIT      1.75     0  06:13      2.97    0.29    1.00
  C47                  CONDUIT      1.99     0  06:17      2.03    0.22    1.00
  C57                  CONDUIT     24.53     0  06:24      1.29    0.31    0.92
  C62                  CONDUIT     14.24     0  06:16      0.86    0.18    0.92
  C64                  CONDUIT      2.44     0  06:14      2.36    0.18    1.00
  C64_2                CONDUIT      4.98     0  06:12      3.28    0.38    1.00
  C68_1                CONDUIT      6.96     0  06:10      4.11    0.56    1.00
  C68_2                CONDUIT      6.95     0  06:10      4.12    0.56    1.00
  C69                  CONDUIT      8.19     0  06:10      4.98    0.62    1.00
  C70_1                CONDUIT      4.78     0  06:15      0.38    0.07    0.74
  C70_2                CONDUIT      0.00     0  00:00      0.00    0.00    0.84
  C78                  CONDUIT     11.43     0  06:16      0.38    0.14    0.93
  C84                  CONDUIT     23.69     0  06:24      1.64    0.30    0.92
  C85                  CONDUIT     22.99     0  06:24      1.64    0.26    0.91
  C86                  CONDUIT     20.63     0  06:22      1.58    0.26    0.91
  C90_1                CONDUIT      1.27     0  06:16      2.04    0.33    1.00
  C90_2                CONDUIT      1.83     0  06:09      3.13    0.47    1.00
  C96                  CONDUIT      3.26     0  06:15      3.23    1.02    0.77
  
  
  ***************************
  Flow Classification Summary
  ***************************
  
  -------------------------------------------------------------------------------------
                      Adjusted    ---------- Fraction of Time in Flow Class ---------- 
                       /Actual         Up    Down  Sub   Sup   Up    Down  Norm  Inlet 
  Conduit               Length    Dry  Dry   Dry   Crit  Crit  Crit  Crit  Ltd   Ctrl  
  -------------------------------------------------------------------------------------
  C103_1                  1.00   0.21  0.00  0.00  0.79  0.00  0.00  0.00  0.79  0.00
  C103_3                  1.00   0.21  0.00  0.00  0.79  0.00  0.00  0.00  0.03  0.00
  C103_4                  1.00   0.21  0.00  0.00  0.79  0.00  0.00  0.00  0.00  0.00
  C108                    1.00   0.21  0.00  0.00  0.79  0.00  0.00  0.00  0.62  0.00
  C110                    1.00   0.21  0.00  0.00  0.74  0.00  0.00  0.05  0.00  0.00
  C125_1                  1.00   0.21  0.00  0.00  0.74  0.00  0.00  0.04  0.01  0.00
  C125_2                  1.00   0.21  0.00  0.00  0.79  0.00  0.00  0.00  0.00  0.00
  C147                    1.00   0.21  0.00  0.00  0.79  0.00  0.00  0.00  0.03  0.00
  C147_2                  1.00   0.21  0.00  0.00  0.76  0.03  0.00  0.00  0.00  0.00
  C147_5                  1.00   0.21  0.00  0.00  0.77  0.02  0.00  0.00  0.79  0.00
  C15                     1.00   0.21  0.00  0.00  0.79  0.00  0.00  0.00  0.02  0.00
  C152                    1.00   0.21  0.00  0.00  0.79  0.00  0.00  0.00  0.00  0.00
  C152_1                  1.00   0.21  0.00  0.00  0.79  0.00  0.00  0.00  0.21  0.00
  C158                    1.00   0.21  0.00  0.00  0.74  0.00  0.00  0.05  0.00  0.00
  C159                    1.00   0.21  0.01  0.00  0.78  0.00  0.00  0.00  0.01  0.00
  C160                    1.00   0.22  0.01  0.00  0.77  0.00  0.00  0.00  0.00  0.00
  C167                    1.00   0.21  0.01  0.00  0.77  0.00  0.00  0.00  0.00  0.00
  C168                    1.00   0.26  0.00  0.00  0.00  0.00  0.74  0.00  0.00  0.00
  C174                    1.00   0.21  0.00  0.00  0.79  0.00  0.00  0.00  0.00  0.00
  C18_1                   1.00   0.21  0.00  0.00  0.79  0.00  0.00  0.00  0.01  0.00
  C18_2                   1.00   0.21  0.00  0.00  0.79  0.00  0.00  0.00  0.00  0.00
  C2                      1.00   0.21  0.01  0.00  0.77  0.00  0.00  0.00  0.01  0.00
  C26                     1.00   0.21  0.00  0.00  0.74  0.00  0.00  0.05  0.00  0.00
  C27                     1.00   0.21  0.00  0.00  0.79  0.00  0.00  0.00  0.03  0.00
  C38                     1.00   0.21  0.00  0.00  0.74  0.00  0.00  0.05  0.00  0.00
  C47                     1.00   0.21  0.00  0.00  0.79  0.00  0.00  0.00  0.04  0.00
  C57                     1.00   0.21  0.00  0.00  0.79  0.00  0.00  0.00  0.00  0.00
  C62                     1.00   0.21  0.00  0.00  0.79  0.00  0.00  0.00  0.00  0.00
  C64                     1.00   0.21  0.00  0.00  0.79  0.00  0.00  0.00  0.05  0.00
  C64_2                   1.00   0.21  0.00  0.00  0.79  0.00  0.00  0.00  0.05  0.00
  C68_1                   1.00   0.21  0.00  0.00  0.79  0.00  0.00  0.00  0.00  0.00
  C68_2                   1.00   0.21  0.00  0.00  0.79  0.00  0.00  0.00  0.02  0.00
  C69                     1.00   0.21  0.00  0.00  0.74  0.00  0.00  0.05  0.00  0.00
  C70_1                   1.00   0.21  0.01  0.00  0.77  0.00  0.00  0.00  0.00  0.00
  C70_2                   1.00   0.00  0.00  0.00  1.00  0.00  0.00  0.00  0.00  0.00
  C78                     1.00   0.21  0.00  0.00  0.79  0.00  0.00  0.00  0.00  0.00
  C84                     1.00   0.21  0.00  0.00  0.79  0.00  0.00  0.00  0.00  0.00
  C85                     1.00   0.21  0.01  0.00  0.78  0.00  0.00  0.00  0.00  0.00
  C86                     1.00   0.21  0.00  0.00  0.79  0.00  0.00  0.00  0.01  0.00
  C90_1                   1.00   0.21  0.00  0.00  0.79  0.00  0.00  0.00  0.01  0.00
  C90_2                   1.00   0.21  0.00  0.00  0.74  0.00  0.00  0.05  0.00  0.00
  C96                     1.00   0.21  0.00  0.00  0.79  0.00  0.00  0.00  0.21  0.00
  
  
  *************************
  Conduit Surcharge Summary
  *************************
  
  ----------------------------------------------------------------------------
                                                           Hours        Hours 
                         --------- Hours Full --------   Above Full   Capacity
  Conduit                Both Ends  Upstream  Dnstream   Normal Flow   Limited
  ----------------------------------------------------------------------------
  C103_1                      0.01      0.01      0.31      0.01         0.01
  C103_3                      0.31      0.31      1.08      0.01         0.01
  C103_4                      1.08      1.08     17.48      0.01         0.01
  C110                       17.52     17.52     17.53      0.01         0.01
  C125_1                      0.01      0.01     17.57      0.01         0.01
  C147                        0.11      0.11      0.41      0.01         0.01
  C147_2                      0.41      0.41      1.11      0.13         0.01
  C147_5                      0.01      0.01      0.09      0.01         0.01
  C15                         1.54      1.54     17.52      0.01         0.01
  C152                        0.01      0.62      0.01      0.96         0.01
  C152_1                      0.62      0.63      0.62      0.79         0.61
  C158                       17.52     17.52     17.53      0.01         0.01
  C168                        0.01      0.01      0.22      0.01         0.01
  C26                         0.26      0.26     17.51      0.01         0.01
  C27                         0.31      0.31      1.84      0.01         0.01
  C38                        17.52     17.52     17.54      0.01         0.01
  C47                         0.37      0.37      1.54      0.01         0.01
  C64                         0.23      0.23      0.65      0.01         0.01
  C64_2                       0.65      0.65     17.49      0.01         0.01
  C68_1                      17.49     17.49     17.49      0.01         2.70
  C68_2                      17.49     17.49     17.50      0.01         5.16
  C69                        17.50     17.50     17.51      0.01         0.43
  C90_1                       0.68      0.68      3.57      0.01         0.01
  C90_2                       3.57      3.57     17.54      0.01         0.01
  C96                         0.01      0.01      0.01      0.06         0.01
  

  Analysis begun on:  Tue Jun  3 06:57:38 2025
  Analysis ended on:  Tue Jun  3 06:57:39 2025
  Total elapsed time: 00:00:01