
  EPA STORM WATER MANAGEMENT MODEL - VERSION 5.2 (Build 5.2.4)
  PYSWMM TOOLKIT API - VERSION v1.0 (2024-04-17)
  ------------------------------------------------------------

  WARNING 04: minimum elevation drop used for Conduit C70_2
  WARNING 04: minimum elevation drop used for Conduit C85
  
  *************
  Element Count
  *************
  Number of rain gages ...... 1
  Number of subcatchments ... 39
  Number of nodes ........... 43
  Number of links ........... 42
  Number of pollutants ...... 0
  Number of land uses ....... 0
  
  
  ****************
  Raingage Summary
  ****************
                                                      Data       Recording
  Name                 Data Source                    Type       Interval 
  ------------------------------------------------------------------------
  rain_gage            rain_gage_timeseries           INTENSITY   15 min.
  
  
  ********************
  Subcatchment Summary
  ********************
  Name                       Area     Width   %Imperv    %Slope Rain Gage            Outlet              
  -----------------------------------------------------------------------------------------------------------
  Sub_1                      2.62    272.79     55.00    3.9580 rain_gage            J89                 
  Sub_10                     2.19    296.41     77.00    2.4860 rain_gage            J12                 
  Sub_11                     0.67    130.53     57.00    5.0240 rain_gage            J6                  
  Sub_12                     5.31    283.97     49.00    3.4940 rain_gage            J12                 
  Sub_13                     4.38    341.66     50.00    2.9930 rain_gage            J2                  
  Sub_14                    14.91    412.40     52.00    3.9710 rain_gage            J155                
  Sub_15                     3.68    325.75     59.00    4.8800 rain_gage            J96                 
  Sub_16                     2.81    372.64     48.00    3.5770 rain_gage            J32                 
  Sub_17                     4.94    458.98     41.00    4.7410 rain_gage            J30                 
  Sub_18                     1.52    250.00     79.00    2.3090 rain_gage            J8                  
  Sub_19                     2.15    372.00     78.00    3.4760 rain_gage            J121                
  Sub_2                      4.81    406.94     64.00    3.8880 rain_gage            J6                  
  Sub_20                    11.54    261.37     57.00    3.9380 rain_gage            J13                 
  Sub_21                     2.48    159.75     71.00    3.2870 rain_gage            J46                 
  Sub_22                     0.94    200.00     69.00    3.2890 rain_gage            J118                
  Sub_23                     2.95    250.00     63.00    3.6520 rain_gage            J103                
  Sub_24                     5.93    412.94     59.00    3.2030 rain_gage            J4                  
  Sub_25                     3.38    300.00     42.00    3.1260 rain_gage            J52                 
  Sub_26                     6.44    408.85     60.00    3.6440 rain_gage            J1                  
  Sub_27                     2.29    250.00     67.00    3.4680 rain_gage            J118                
  Sub_28                    10.61    229.01     71.00    3.1810 rain_gage            J43                 
  Sub_29                     4.46    300.00     76.00    3.1960 rain_gage            J7                  
  Sub_3                      2.79    466.00     72.00    3.7700 rain_gage            outfall             
  Sub_30                     2.64    390.64     74.00    3.0810 rain_gage            J57                 
  Sub_31                     2.90    292.33     72.00    2.7780 rain_gage            J156                
  Sub_32                     7.63    310.58     77.00    2.8180 rain_gage            J126                
  Sub_33                     3.19    461.41     83.00    3.0790 rain_gage            J63                 
  Sub_34                     2.29    250.00     65.00    2.6240 rain_gage            J5                  
  Sub_35                     2.76    217.64     70.00    2.8170 rain_gage            J3                  
  Sub_36                     1.43    235.88     50.00    2.2300 rain_gage            J70                 
  Sub_37                     1.87    251.70     78.00    3.2300 rain_gage            J71                 
  Sub_38                     4.37    354.85     73.00    3.2410 rain_gage            J23                 
  Sub_39                    11.94    244.72     56.00    2.9530 rain_gage            J147                
  Sub_4                      2.18    358.74     82.00    3.9740 rain_gage            J11                 
  Sub_5                      2.02    268.69     96.00    3.0480 rain_gage            J25                 
  Sub_6                      1.69    314.60     85.00    3.7140 rain_gage            J26                 
  Sub_7                      0.86    147.58     75.00    3.3650 rain_gage            J17                 
  Sub_8                      0.37     73.53     39.00    3.1440 rain_gage            J10                 
  Sub_9                      4.52    345.46     42.00    3.8900 rain_gage            J9                  


  *******************
  LID Control Summary
  *******************
                                   No. of        Unit        Unit      % Area    % Imperv      % Perv
  Subcatchment     LID Control      Units        Area       Width     Covered     Treated     Treated
  ---------------------------------------------------------------------------------------------------
  Sub_24           rain_garden         30       85.00        0.00        0.99        0.00       28.65
  Sub_24           rain_barrel         80        2.95        0.00        0.09       30.99        0.00
  Sub_25           rain_barrel         41        2.95        0.00        0.08       39.95        0.00
  Sub_26           rain_barrel        112        2.95        0.00        0.12       39.73        0.00
  Sub_27           rain_garden          7       85.00        0.00        0.60        0.00       21.03
  Sub_27           rain_barrel         39        2.95        0.00        0.12       34.81        0.00
  Sub_28           rain_garden         32       85.00        0.00        0.59        0.00       23.50
  Sub_28           rain_barrel        179        2.95        0.00        0.11       32.69        0.00
  Sub_31           rain_garden         18       85.00        0.00        1.21        0.00       50.13
  Sub_32           rain_garden         17       85.00        0.00        0.43        0.00       22.35
  Sub_34           rain_garden         18       85.00        0.00        1.54        0.00       51.87
  Sub_35           rain_garden         17       85.00        0.00        1.20        0.00       47.03
  Sub_35           rain_barrel         38        2.95        0.00        0.09       26.87        0.00
  Sub_36           rain_garden         18       85.00        0.00        2.45        0.00       57.21
  Sub_37           rain_garden          8       85.00        0.00        0.83        0.00       44.21
  Sub_37           rain_barrel         30        2.95        0.00        0.11       28.08        0.00
  Sub_38           rain_garden         15       85.00        0.00        0.67        0.00       29.59
  Sub_38           rain_barrel         50        2.95        0.00        0.08       21.33        0.00
  Sub_39           rain_garden        100       85.00        0.00        1.63        0.00       43.97
  Sub_39           rain_barrel        125        2.95        0.00        0.07       25.41        0.00
  
  
  ************
  Node Summary
  ************
                                           Invert      Max.    Ponded    External
  Name                 Type                 Elev.     Depth      Area    Inflow  
  -------------------------------------------------------------------------------
  J1                   JUNCTION             -6.11     11.75       0.0
  J10                  JUNCTION             -6.30     10.18       0.0
  J103                 JUNCTION             -6.19     10.56       0.0
  J104                 JUNCTION             -6.22     10.06       0.0
  J11                  JUNCTION              0.00      4.57       0.0
  J118                 JUNCTION             -6.18     12.12       0.0
  J12                  JUNCTION             -1.49      6.08       0.0
  J121                 JUNCTION             -1.01      9.50       0.0
  J126                 JUNCTION              2.71      5.20       0.0
  J13                  JUNCTION             -6.14     12.38       0.0
  J14                  JUNCTION             -6.30     10.18       0.0
  J147                 JUNCTION              2.00      4.84       0.0
  J151                 JUNCTION             -6.29     10.14       0.0
  J156                 JUNCTION              2.00      6.65       0.0
  J17                  JUNCTION             -2.21      6.73       0.0
  J18                  JUNCTION             -6.29     10.21       0.0
  J2                   JUNCTION             -0.37      7.68       0.0
  J23                  JUNCTION              1.98      4.73       0.0
  J25                  JUNCTION             -0.96      9.42       0.0
  J26                  JUNCTION             -1.44      7.94       0.0
  J27                  JUNCTION             -2.16      4.90       0.0
  J3                   JUNCTION             -0.57      9.12       0.0
  J30                  JUNCTION             -6.26      9.78       0.0
  J32                  JUNCTION             -6.23     10.58       0.0
  J4                   JUNCTION             -1.20      7.63       0.0
  J43                  JUNCTION             -1.70      8.65       0.0
  J44                  JUNCTION             -6.18     12.57       0.0
  J46                  JUNCTION             -6.16     11.43       0.0
  J5                   JUNCTION             -1.09      8.97       0.0
  J50                  JUNCTION             -6.15     11.76       0.0
  J52                  JUNCTION             -6.13     12.49       0.0
  J57                  JUNCTION             -1.59      8.82       0.0
  J6                   JUNCTION             -2.09      5.83       0.0
  J63                  JUNCTION              1.87      4.03       0.0
  J7                   JUNCTION             -0.42      6.53       0.0
  J70                  JUNCTION              2.00      7.06       0.0
  J71                  JUNCTION              1.80      7.50       0.0
  J8                   JUNCTION             -1.37      8.64       0.0
  J89                  JUNCTION             -1.00      6.26       0.0
  J9                   JUNCTION             -2.20      4.44       0.0
  J96                  JUNCTION             -1.97      5.15       0.0
  outfall              OUTFALL              -6.30     10.00       0.0
  J155                 STORAGE              -4.00      7.18       0.0
  
  
  ************
  Link Summary
  ************
  Name             From Node        To Node          Type            Length    %Slope Roughness
  ---------------------------------------------------------------------------------------------
  C103_1           J71              J3               CONDUIT          380.3    0.6233    0.0100
  C103_3           J3               J5               CONDUIT          261.0    0.2000    0.0100
  C103_4           J5               J57              CONDUIT          252.8    0.2000    0.0100
  C108             J70              J71              CONDUIT          121.0    0.1612    0.0100
  C110             J43              J44              CONDUIT          240.0    0.1667    0.0100
  C125_1           J57              J1               CONDUIT          257.8    0.9757    0.0100
  C125_2           J1               J52              CONDUIT          254.2    0.0100    0.0100
  C147             J7               J4               CONDUIT          393.0    0.2000    0.0100
  C147_2           J4               J57              CONDUIT          194.0    0.2000    0.0100
  C147_5           J63              J7               CONDUIT          273.4    0.8371    0.0100
  C15              J26              J17              CONDUIT          386.0    0.2000    0.0100
  C152             J23              J63              CONDUIT          346.2    0.0323    0.0100
  C152_1           J147             J23              CONDUIT           56.8    0.0317    0.0100
  C158             J17              J151             CONDUIT           40.0    0.2000    0.0100
  C159             J151             J10              CONDUIT           65.0    0.0100    0.0100
  C160             J18              J151             CONDUIT           65.0    0.0100    0.0100
  C167             J104             J32              CONDUIT           77.0    0.0100    0.0100
  C168             J155             J104             CONDUIT           15.0    6.6815    0.0100
  C174             J156             J71              CONDUIT          226.0    0.0863    0.0100
  C18_1            J52              J13              CONDUIT           24.9    0.0104    0.0100
  C18_2            J13              J50              CONDUIT          142.9    0.0104    0.0100
  C2               J50              J46              CONDUIT           71.3    0.0100    0.0100
  C26              J11              J14              CONDUIT          445.6    0.2917    0.0100
  C27              J2               J89              CONDUIT          314.9    0.2000    0.0100
  C38              J96              J32              CONDUIT          130.0    0.1938    0.0100
  C47              J25              J26              CONDUIT          241.0    0.2000    0.0100
  C57              J103             J104             CONDUIT          262.0    0.0100    0.0100
  C62              J32              J30              CONDUIT          305.9    0.0100    0.0100
  C64              J89              J12              CONDUIT          237.9    0.2039    0.0100
  C64_2            J12              J6               CONDUIT          303.5    0.2000    0.0100
  C68_1            J6               J27              CONDUIT           38.4    0.1808    0.0100
  C68_2            J27              J9               CONDUIT           19.2    0.1804    0.0100
  C69              J9               J10              CONDUIT           52.0    0.2000    0.0100
  C70_1            J10              J14              CONDUIT          279.9    0.0046    0.0100
  C70_2            J14              outfall          CONDUIT            5.5    0.0183    0.0100
  C78              J30              J18              CONDUIT          281.0    0.0100    0.0100
  C84              J118             J103             CONDUIT          163.0    0.0100    0.0100
  C85              J44              J118             CONDUIT            8.0    0.0125    0.0100
  C86              J46              J44              CONDUIT          189.0    0.0100    0.0100
  C90_1            J121             J8               CONDUIT          179.1    0.2000    0.0100
  C90_2            J8               J32              CONDUIT          429.7    0.2000    0.0100
  C96              J126             J63              CONDUIT          582.0    0.1436    0.0100
  
  
  *********************
  Cross Section Summary
  *********************
                                        Full     Full     Hyd.     Max.   No. of     Full
  Conduit          Shape               Depth     Area     Rad.    Width  Barrels     Flow
  ---------------------------------------------------------------------------------------
  C103_1           CIRCULAR             1.50     1.77     0.38     1.50        1    10.78
  C103_3           CIRCULAR             1.50     1.77     0.38     1.50        1     6.11
  C103_4           CIRCULAR             1.50     1.77     0.38     1.50        1     6.11
  C108             CIRCULAR             1.25     1.23     0.31     1.25        1     3.37
  C110             CIRCULAR             1.50     1.77     0.38     1.50        1     5.57
  C125_1           CIRCULAR             3.00     7.07     0.75     3.00        1    85.65
  C125_2           RECT_CLOSED          8.00    40.00     1.54     5.00        1    79.21
  C147             CIRCULAR             2.00     3.14     0.50     2.00        1    13.15
  C147_2           CIRCULAR             2.00     3.14     0.50     2.00        1    13.15
  C147_5           CIRCULAR             2.01     3.16     0.50     2.01        1    27.16
  C15              CIRCULAR             1.75     2.41     0.44     1.75        1     9.21
  C152             CIRCULAR             1.26     1.24     0.31     1.26        1     1.53
  C152_1           CIRCULAR             1.26     1.24     0.31     1.26        1     1.51
  C158             CIRCULAR             1.75     2.41     0.44     1.75        1     9.21
  C159             RECT_CLOSED          8.00    40.00     1.54     5.00        1    79.21
  C160             RECT_CLOSED          8.00    40.00     1.54     5.00        1    79.21
  C167             RECT_CLOSED          8.00    40.00     1.54     5.00        1    79.21
  C168             CIRCULAR             2.00     3.14     0.50     2.00        1    76.02
  C174             CIRCULAR             1.00     0.79     0.25     1.00        1     1.36
  C18_1            RECT_CLOSED          8.00    40.00     1.54     5.00        1    80.82
  C18_2            RECT_CLOSED          8.00    40.00     1.54     5.00        1    80.92
  C2               RECT_CLOSED          8.00    40.00     1.54     5.00        1    79.21
  C26              CIRCULAR             1.00     0.79     0.25     1.00        1     2.50
  C27              CIRCULAR             1.25     1.23     0.31     1.25        1     3.76
  C38              CIRCULAR             1.50     1.77     0.38     1.50        1     6.01
  C47              CIRCULAR             1.75     2.41     0.44     1.75        1     9.21
  C57              RECT_CLOSED          8.00    40.00     1.54     5.00        1    79.21
  C62              RECT_CLOSED          8.00    40.00     1.54     5.00        1    79.21
  C64              CIRCULAR             2.00     3.14     0.50     2.00        1    13.28
  C64_2            CIRCULAR             2.00     3.14     0.50     2.00        1    13.15
  C68_1            CIRCULAR             2.00     3.14     0.50     2.00        1    12.51
  C68_2            CIRCULAR             2.00     3.14     0.50     2.00        1    12.49
  C69              CIRCULAR             2.00     3.14     0.50     2.00        1    13.15
  C70_1            RECT_CLOSED         10.00    50.00     1.67     5.00        1    70.50
  C70_2            RECT_CLOSED         10.00    50.00     1.67     5.00        1   141.22
  C78              RECT_CLOSED          8.00    40.00     1.54     5.00        1    79.21
  C84              RECT_CLOSED          8.00    40.00     1.54     5.00        1    79.21
  C85              RECT_CLOSED          8.00    40.00     1.54     5.00        1    88.56
  C86              RECT_CLOSED          8.00    40.00     1.54     5.00        1    79.21
  C90_1            RECT_CLOSED          1.50     1.36     0.28     0.91        1     3.91
  C90_2            RECT_CLOSED          1.50     1.36     0.28     0.91        1     3.91
  C96              CIRCULAR             1.25     1.23     0.31     1.25        1     3.18
  
  
  ****************
  Analysis Options
  ****************
  Flow Units ............... CFS
  Process Models:
    Rainfall/Runoff ........ YES
    RDII ................... NO
    Snowmelt ............... NO
    Groundwater ............ NO
    Flow Routing ........... YES
    Ponding Allowed ........ NO
    Water Quality .......... NO
  Infiltration Method ...... GREEN_AMPT
  Flow Routing Method ...... DYNWAVE
  Surcharge Method ......... EXTRAN
  Starting Date ............ 06/01/2025 00:00:00
  Ending Date .............. 06/01/2025 23:45:00
  Antecedent Dry Days ...... 0.0
  Report Time Step ......... 00:05:00
  Wet Time Step ............ 00:05:00
  Dry Time Step ............ 00:05:00
  Routing Time Step ........ 5.00 sec
  Variable Time Step ....... YES
  Maximum Trials ........... 8
  Number of Threads ........ 2
  Head Tolerance ........... 0.005000 ft
  
  
  **************************        Volume         Depth
  Runoff Quantity Continuity     acre-feet        inches
  **************************     ---------       -------
  Initial LID Storage ......         0.109         0.008
  Total Precipitation ......        10.593         0.812
  Evaporation Loss .........         0.000         0.000
  Infiltration Loss ........         6.041         0.463
  Surface Runoff ...........         4.074         0.312
  Final Storage ............         0.589         0.045
  Continuity Error (%) .....        -0.014
  
  
  **************************        Volume        Volume
  Flow Routing Continuity        acre-feet      10^6 gal
  **************************     ---------     ---------
  Dry Weather Inflow .......         0.000         0.000
  Wet Weather Inflow .......         4.074         1.327
  Groundwater Inflow .......         0.000         0.000
  RDII Inflow ..............         0.000         0.000
  External Inflow ..........         0.000         0.000
  External Outflow .........         2.496         0.813
  Flooding Loss ............         0.000         0.000
  Evaporation Loss .........         0.000         0.000
  Exfiltration Loss ........         0.000         0.000
  Initial Stored Volume ....         1.620         0.528
  Final Stored Volume ......         3.200         1.043
  Continuity Error (%) .....        -0.032
  
  
  *************************
  Highest Continuity Errors
  *************************
  Node J30 (8.20%)
  Node J103 (5.90%)
  Node J1 (5.62%)
  Node J32 (5.46%)
  Node J104 (5.24%)
  
  
  ***************************
  Time-Step Critical Elements
  ***************************
  Link C70_2 (43.22%)
  Link C85 (16.62%)
  Link C68_2 (5.60%)
  
  
  ********************************
  Highest Flow Instability Indexes
  ********************************
  Link C158 (16)
  Link C159 (14)
  Link C160 (14)
  Link C15 (13)
  Link C68_1 (10)
  
  
  *********************************
  Most Frequent Nonconverging Nodes
  *********************************
  Node outfall (0.35%)
  Node J118 (0.30%)
  Node J44 (0.24%)
  Node J17 (0.03%)
  Node J27 (0.02%)
  
  
  *************************
  Routing Time Step Summary
  *************************
  Minimum Time Step           :     0.50 sec
  Average Time Step           :     2.24 sec
  Maximum Time Step           :     5.00 sec
  % of Time in Steady State   :     0.00
  Average Iterations per Step :     2.74
  % of Steps Not Converging   :     0.35
  Time Step Frequencies       :
      5.000 -  3.155 sec      :    35.80 %
      3.155 -  1.991 sec      :     4.81 %
      1.991 -  1.256 sec      :     2.32 %
      1.256 -  0.792 sec      :     3.50 %
      0.792 -  0.500 sec      :    53.57 %
  
  
  ***************************
  Subcatchment Runoff Summary
  ***************************
  
  ------------------------------------------------------------------------------------------------------------------------------
                            Total      Total      Total      Total     Imperv       Perv      Total       Total     Peak  Runoff
                           Precip      Runon       Evap      Infil     Runoff     Runoff     Runoff      Runoff   Runoff   Coeff
  Subcatchment                 in         in         in         in         in         in         in    10^6 gal      CFS
  ------------------------------------------------------------------------------------------------------------------------------
  Sub_1                      0.81       0.00       0.00       0.49       0.43       0.00       0.30        0.02     0.34   0.368
  Sub_10                     0.81       0.00       0.00       0.27       0.60       0.10       0.51        0.03     0.57   0.634
  Sub_11                     0.81       0.00       0.00       0.48       0.44       0.00       0.31        0.01     0.09   0.381
  Sub_12                     0.81       0.00       0.00       0.53       0.38       0.00       0.27        0.04     0.62   0.327
  Sub_13                     0.81       0.00       0.00       0.52       0.39       0.00       0.27        0.03     0.52   0.334
  Sub_14                     0.81       0.00       0.00       0.51       0.40       0.00       0.28        0.11     1.83   0.347
  Sub_15                     0.81       0.00       0.00       0.47       0.46       0.00       0.32        0.03     0.52   0.394
  Sub_16                     0.81       0.00       0.00       0.53       0.37       0.01       0.27        0.02     0.32   0.329
  Sub_17                     0.81       0.00       0.00       0.57       0.32       0.00       0.22        0.03     0.48   0.274
  Sub_18                     0.81       0.00       0.00       0.35       0.61       0.00       0.43        0.02     0.28   0.528
  Sub_19                     0.81       0.00       0.00       0.36       0.60       0.00       0.42        0.02     0.40   0.521
  Sub_2                      0.81       0.00       0.00       0.40       0.50       0.04       0.39        0.05     0.89   0.482
  Sub_20                     0.81       0.00       0.00       0.48       0.44       0.00       0.31        0.10     1.55   0.380
  Sub_21                     0.81       0.00       0.00       0.40       0.55       0.00       0.39        0.03     0.42   0.474
  Sub_22                     0.81       0.00       0.00       0.34       0.54       0.07       0.44        0.01     0.21   0.546
  Sub_23                     0.81       0.00       0.00       0.45       0.49       0.00       0.34        0.03     0.44   0.421
  Sub_24                     0.81       0.00       0.00       0.53       0.45       0.00       0.22        0.04     0.57   0.269
  Sub_25                     0.81       0.00       0.00       0.61       0.33       0.02       0.16        0.01     0.26   0.198
  Sub_26                     0.81       0.00       0.00       0.55       0.46       0.00       0.20        0.03     0.55   0.241
  Sub_27                     0.81       0.00       0.00       0.51       0.52       0.00       0.24        0.01     0.24   0.290
  Sub_28                     0.81       0.00       0.00       0.48       0.55       0.00       0.26        0.07     1.18   0.316
  Sub_29                     0.81       0.00       0.00       0.37       0.59       0.00       0.41        0.05     0.80   0.508
  Sub_3                      0.81       0.00       0.00       0.32       0.56       0.08       0.47        0.04     0.67   0.578
  Sub_30                     0.81       0.00       0.00       0.38       0.57       0.00       0.40        0.03     0.46   0.494
  Sub_31                     0.81       0.00       0.00       0.39       0.55       0.00       0.39        0.03     0.49   0.475
  Sub_32                     0.81       0.00       0.00       0.36       0.59       0.00       0.42        0.09     1.38   0.512
  Sub_33                     0.81       0.00       0.00       0.32       0.64       0.01       0.46        0.04     0.65   0.571
  Sub_34                     0.81       0.00       0.00       0.43       0.50       0.00       0.35        0.02     0.35   0.428
  Sub_35                     0.81       0.00       0.00       0.47       0.54       0.00       0.27        0.02     0.33   0.338
  Sub_36                     0.81       0.00       0.00       0.51       0.38       0.00       0.26        0.01     0.17   0.326
  Sub_37                     0.81       0.00       0.00       0.41       0.60       0.03       0.32        0.02     0.27   0.393
  Sub_38                     0.81       0.00       0.00       0.44       0.56       0.00       0.31        0.04     0.59   0.381
  Sub_39                     0.81       0.00       0.00       0.53       0.43       0.00       0.22        0.07     1.15   0.274
  Sub_4                      0.81       0.00       0.00       0.33       0.64       0.01       0.45        0.03     0.42   0.557
  Sub_5                      0.81       0.00       0.00       0.10       0.74       0.16       0.68        0.04     0.64   0.835
  Sub_6                      0.81       0.00       0.00       0.29       0.66       0.03       0.49        0.02     0.39   0.606
  Sub_7                      0.81       0.00       0.00       0.38       0.58       0.00       0.41        0.01     0.15   0.501
  Sub_8                      0.81       0.00       0.00       0.59       0.30       0.00       0.21        0.00     0.03   0.261
  Sub_9                      0.81       0.00       0.00       0.57       0.33       0.00       0.23        0.03     0.45   0.281
  

  ***********************
  LID Performance Summary
  ***********************

  --------------------------------------------------------------------------------------------------------------------
                                         Total      Evap     Infil   Surface    Drain    Initial     Final  Continuity
                                        Inflow      Loss      Loss   Outflow   Outflow   Storage   Storage       Error
  Subcatchment      LID Control             in        in        in        in        in        in        in           %
  --------------------------------------------------------------------------------------------------------------------
  Sub_24            rain_garden           0.81      0.00      0.00      0.00      0.00      2.40      3.21       -0.00
  Sub_24            rain_barrel         107.48      0.00      0.00     73.23      0.00      0.00     34.25        0.00
  Sub_25            rain_barrel         110.71      0.00      0.00     76.46      0.00      0.00     34.25        0.00
  Sub_26            rain_barrel         109.77      0.00      0.00     75.52      0.00      0.00     34.25       -0.00
  Sub_27            rain_garden           0.81      0.00      0.00      0.00      0.00      2.40      3.21       -0.00
  Sub_27            rain_barrel         109.20      0.00      0.00     74.95      0.00      0.00     34.25       -0.00
  Sub_28            rain_garden           0.81      0.00      0.00      0.00      0.00      2.40      3.21       -0.00
  Sub_28            rain_barrel         109.29      0.00      0.00     75.04      0.00      0.00     34.25        0.00
  Sub_31            rain_garden           0.81      0.00      0.00      0.00      0.00      2.40      3.21       -0.00
  Sub_32            rain_garden           0.81      0.00      0.00      0.00      0.00      2.40      3.21       -0.00
  Sub_34            rain_garden           0.81      0.00      0.00      0.00      0.00      2.40      3.21       -0.00
  Sub_35            rain_garden           0.81      0.00      0.00      0.00      0.00      2.40      3.21       -0.00
  Sub_35            rain_barrel         108.13      0.00      0.00     73.88      0.00      0.00     34.25        0.00
  Sub_36            rain_garden           0.81      0.00      0.00      0.00      0.00      2.40      3.21       -0.00
  Sub_37            rain_garden           2.47      0.00      0.08      0.00      0.00      2.40      4.80       -0.19
  Sub_37            rain_barrel         108.57      0.00      0.00     74.32      0.00      0.00     34.25        0.00
  Sub_38            rain_garden           0.81      0.00      0.00      0.00      0.00      2.40      3.21       -0.00
  Sub_38            rain_barrel         108.15      0.00      0.00     73.90      0.00      0.00     34.25        0.00
  Sub_39            rain_garden           0.81      0.00      0.00      0.00      0.00      2.40      3.21       -0.00
  Sub_39            rain_barrel         106.99      0.00      0.00     72.74      0.00      0.00     34.25       -0.00
  
  ******************
  Node Depth Summary
  ******************
  
  ---------------------------------------------------------------------------------
                                 Average  Maximum  Maximum  Time of Max    Reported
                                   Depth    Depth      HGL   Occurrence   Max Depth
  Node                 Type         Feet     Feet     Feet  days hr:min        Feet
  ---------------------------------------------------------------------------------
  J1                   JUNCTION     3.68     5.86    -0.25     0  21:25        5.86
  J10                  JUNCTION     3.83     6.05    -0.25     0  21:22        6.05
  J103                 JUNCTION     3.75     5.94    -0.25     0  21:26        5.94
  J104                 JUNCTION     3.77     5.97    -0.25     0  21:26        5.97
  J11                  JUNCTION     0.12     0.28     0.28     0  12:15        0.28
  J118                 JUNCTION     3.73     5.94    -0.24     0  21:27        5.92
  J12                  JUNCTION     0.51     1.23    -0.25     0  21:25        1.23
  J121                 JUNCTION     0.23     0.76    -0.25     0  21:23        0.76
  J126                 JUNCTION     0.25     0.60     3.30     0  12:15        0.60
  J13                  JUNCTION     3.70     5.89    -0.25     0  21:24        5.89
  J14                  JUNCTION     3.83     6.05    -0.25     0  21:21        6.05
  J147                 JUNCTION     0.38     0.88     2.88     0  12:15        0.88
  J151                 JUNCTION     3.82     6.04    -0.25     0  21:13        6.04
  J156                 JUNCTION     0.18     0.42     2.42     0  12:15        0.42
  J17                  JUNCTION     0.86     1.99    -0.22     0  21:07        1.98
  J18                  JUNCTION     3.82     6.04    -0.25     0  21:22        6.04
  J2                   JUNCTION     0.15     0.31    -0.06     0  12:15        0.31
  J23                  JUNCTION     0.39     0.88     2.86     0  12:15        0.88
  J25                  JUNCTION     0.26     0.71    -0.25     0  21:24        0.71
  J26                  JUNCTION     0.44     1.19    -0.25     0  21:23        1.19
  J27                  JUNCTION     0.87     1.91    -0.25     0  21:27        1.91
  J3                   JUNCTION     0.24     0.46    -0.11     0  12:15        0.46
  J30                  JUNCTION     3.80     6.01    -0.25     0  21:21        6.01
  J32                  JUNCTION     3.77     5.98    -0.25     0  21:21        5.98
  J4                   JUNCTION     0.53     0.96    -0.25     0  21:28        0.96
  J43                  JUNCTION     0.57     1.45    -0.25     0  21:16        1.45
  J44                  JUNCTION     3.73     5.94    -0.24     0  21:16        5.93
  J46                  JUNCTION     3.72     5.91    -0.25     0  21:26        5.91
  J5                   JUNCTION     0.38     0.84    -0.25     0  21:26        0.84
  J50                  JUNCTION     3.71     5.90    -0.25     0  21:24        5.90
  J52                  JUNCTION     3.70     5.89    -0.25     0  21:24        5.89
  J57                  JUNCTION     0.57     1.34    -0.25     0  21:25        1.34
  J6                   JUNCTION     0.83     1.84    -0.25     0  21:24        1.84
  J63                  JUNCTION     0.22     0.50     2.37     0  12:15        0.50
  J7                   JUNCTION     0.36     0.81     0.39     0  12:15        0.81
  J70                  JUNCTION     0.08     0.19     2.19     0  12:15        0.19
  J71                  JUNCTION     0.13     0.29     2.10     0  12:15        0.29
  J8                   JUNCTION     0.39     1.12    -0.25     0  21:24        1.12
  J89                  JUNCTION     0.28     0.75    -0.25     0  21:26        0.75
  J9                   JUNCTION     0.89     1.95    -0.24     0  21:19        1.95
  J96                  JUNCTION     0.70     1.72    -0.25     0  18:55        1.72
  outfall              OUTFALL      5.69     8.00     1.70     0  06:00        8.00
  J155                 STORAGE      2.22     2.39    -1.61     0  23:45        2.39
  
  
  *******************
  Node Inflow Summary
  *******************
  
  -------------------------------------------------------------------------------------------------
                                  Maximum  Maximum                  Lateral       Total        Flow
                                  Lateral    Total  Time of Max      Inflow      Inflow     Balance
                                   Inflow   Inflow   Occurrence      Volume      Volume       Error
  Node                 Type           CFS      CFS  days hr:min    10^6 gal    10^6 gal     Percent
  -------------------------------------------------------------------------------------------------
  J1                   JUNCTION      0.55     7.71     0  12:15      0.0343       0.486       5.956
  J10                  JUNCTION      0.03    31.40     0  12:00     0.00212       0.841       3.839
  J103                 JUNCTION      0.44    17.96     0  11:59      0.0274       0.608       6.274
  J104                 JUNCTION      0.00    19.03     0  12:00           0       0.573       5.529
  J11                  JUNCTION      0.42     0.42     0  12:15      0.0268      0.0268       0.381
  J118                 JUNCTION      0.45    17.24     0  11:59       0.026       0.601       2.478
  J12                  JUNCTION      1.19     2.05     0  12:15      0.0689       0.125      -0.047
  J121                 JUNCTION      0.40     0.40     0  12:15      0.0248      0.0251      -0.001
  J126                 JUNCTION      1.38     1.38     0  12:15      0.0862      0.0862       0.002
  J13                  JUNCTION      1.55    11.96     0  11:59      0.0969       0.547       2.734
  J14                  JUNCTION      0.00    32.43     0  12:01           0       0.807       3.276
  J147                 JUNCTION      1.15     1.15     0  12:15      0.0722      0.0722       0.002
  J151                 JUNCTION      0.00    27.75     0  12:01           0       0.686       1.756
  J156                 JUNCTION      0.49     0.49     0  12:15      0.0304      0.0304      -0.002
  J17                  JUNCTION      0.15     1.18     0  12:15      0.0095       0.077       1.998
  J18                  JUNCTION      0.00    25.47     0  12:00           0       0.623       5.251
  J2                   JUNCTION      0.52     0.52     0  12:15      0.0323      0.0324      -0.116
  J23                  JUNCTION      0.59     1.74     0  12:15      0.0367       0.109       0.009
  J25                  JUNCTION      0.64     0.64     0  12:15      0.0372      0.0391      -0.118
  J26                  JUNCTION      0.39     1.03     0  12:15      0.0226      0.0641      -0.144
  J27                  JUNCTION      0.00     3.00     0  12:14           0        0.18       0.019
  J3                   JUNCTION      0.33     1.24     0  12:15      0.0206      0.0783      -0.020
  J30                  JUNCTION      0.48    23.71     0  12:00      0.0299       0.639       8.930
  J32                  JUNCTION      0.32    21.71     0  12:00      0.0204        0.64       5.771
  J4                   JUNCTION      0.57     5.12     0  12:15      0.0352       0.321       0.021
  J43                  JUNCTION      1.18     1.18     0  12:15      0.0741      0.0743       0.812
  J44                  JUNCTION      0.00    16.03     0  11:59           0       0.594       3.267
  J46                  JUNCTION      0.42    13.93     0  11:59      0.0259       0.538       4.558
  J5                   JUNCTION      0.35     1.58     0  12:15      0.0216       0.101      -0.024
  J50                  JUNCTION      0.00    12.73     0  11:59           0       0.532       3.658
  J52                  JUNCTION      0.26     9.46     0  11:59      0.0148       0.475       5.394
  J57                  JUNCTION      0.46     7.16     0  12:15      0.0288       0.452       0.181
  J6                   JUNCTION      0.97     2.96     0  12:15      0.0567       0.181       0.613
  J63                  JUNCTION      0.65     3.75     0  12:15      0.0403       0.235      -0.003
  J7                   JUNCTION      0.80     4.55     0  12:15      0.0499       0.285      -0.044
  J70                  JUNCTION      0.17     0.17     0  12:15      0.0103      0.0103      -0.015
  J71                  JUNCTION      0.27     0.91     0  12:15      0.0162       0.057      -0.038
  J8                   JUNCTION      0.28     0.68     0  12:15      0.0176      0.0443       1.180
  J89                  JUNCTION      0.34     0.86     0  12:15      0.0212      0.0552      -0.025
  J9                   JUNCTION      0.45     3.46     0  12:14       0.028       0.208       0.289
  J96                  JUNCTION      0.52     0.52     0  12:15       0.032      0.0324       1.127
  outfall              OUTFALL       0.67    33.77     0  12:00      0.0356       0.813       0.000
  J155                 STORAGE       1.83     1.83     0  12:15       0.114       0.642       0.000
  
  
  **********************
  Node Surcharge Summary
  **********************
  
  Surcharging occurs when water rises above the top of the highest conduit.
  ---------------------------------------------------------------------
                                               Max. Height   Min. Depth
                                   Hours       Above Crown    Below Rim
  Node                 Type      Surcharged           Feet         Feet
  ---------------------------------------------------------------------
  J17                  JUNCTION        7.22          0.239        4.744
  J96                  JUNCTION        7.25          0.221        3.432
  
  
  *********************
  Node Flooding Summary
  *********************
  
  No nodes were flooded.
  
  
  **********************
  Storage Volume Summary
  **********************
  
  ------------------------------------------------------------------------------------------------
                         Average    Avg   Evap  Exfil     Maximum    Max    Time of Max    Maximum
                          Volume   Pcnt   Pcnt   Pcnt      Volume   Pcnt     Occurrence    Outflow
  Storage Unit          1000 ft³   Full   Loss   Loss    1000 ft³   Full    days hr:min        CFS
  ------------------------------------------------------------------------------------------------
  J155                    79.112   25.1    0.0    0.0      85.779   27.2       0  23:45       0.00
  
  
  ***********************
  Outfall Loading Summary
  ***********************
  
  -----------------------------------------------------------
                         Flow       Avg       Max       Total
                         Freq      Flow      Flow      Volume
  Outfall Node           Pcnt       CFS       CFS    10^6 gal
  -----------------------------------------------------------
  outfall               72.03      7.16     33.77       0.813
  -----------------------------------------------------------
  System                72.03      7.16     33.77       0.813
  
  
  ********************
  Link Flow Summary
  ********************
  
  -----------------------------------------------------------------------------
                                 Maximum  Time of Max   Maximum    Max/    Max/
                                  |Flow|   Occurrence   |Veloc|    Full    Full
  Link                 Type          CFS  days hr:min    ft/sec    Flow   Depth
  -----------------------------------------------------------------------------
  C103_1               CONDUIT      0.91     0  12:15      2.62    0.08    0.25
  C103_3               CONDUIT      1.24     0  12:15      2.47    0.20    0.39
  C103_4               CONDUIT      1.58     0  12:15      2.67    0.26    0.73
  C108                 CONDUIT      0.17     0  12:15      1.00    0.05    0.19
  C110                 CONDUIT      1.18     0  12:15      2.68    0.21    0.98
  C125_1               CONDUIT      7.16     0  12:15      6.79    0.08    0.72
  C125_2               CONDUIT      9.26     0  11:59      0.91    0.12    0.73
  C147                 CONDUIT      4.55     0  12:15      3.82    0.35    0.40
  C147_2               CONDUIT      5.12     0  12:15      5.25    0.39    0.58
  C147_5               CONDUIT      3.75     0  12:15      4.16    0.14    0.33
  C15                  CONDUIT      1.03     0  12:16      2.40    0.11    0.84
  C152                 CONDUIT      1.74     0  12:15      2.49    1.14    0.55
  C152_1               CONDUIT      1.15     0  12:15      1.25    0.76    0.70
  C158                 CONDUIT      1.47     0  11:56      2.79    0.16    1.00
  C159                 CONDUIT     28.06     0  12:00      1.17    0.35    0.76
  C160                 CONDUIT     26.29     0  12:01      1.09    0.33    0.76
  C167                 CONDUIT     20.06     0  12:00      0.83    0.25    0.75
  C168                 CONDUIT      0.00     0  00:00      0.00    0.00    0.19
  C174                 CONDUIT      0.49     0  12:15      1.93    0.36    0.36
  C18_1                CONDUIT     10.44     0  11:59      0.82    0.13    0.74
  C18_2                CONDUIT     12.73     0  11:59      0.95    0.16    0.74
  C2                   CONDUIT     13.52     0  11:59      0.84    0.17    0.74
  C26                  CONDUIT      0.42     0  12:15      2.42    0.17    0.51
  C27                  CONDUIT      0.52     0  12:15      2.01    0.14    0.35
  C38                  CONDUIT      0.65     0  12:00      2.23    0.11    1.00
  C47                  CONDUIT      0.64     0  12:15      1.87    0.07    0.54
  C57                  CONDUIT     19.03     0  12:00      0.79    0.24    0.74
  C62                  CONDUIT     23.23     0  12:00      0.97    0.29    0.75
  C64                  CONDUIT      0.86     0  12:15      1.72    0.06    0.50
  C64_2                CONDUIT      2.05     0  12:15      2.54    0.16    0.77
  C68_1                CONDUIT      3.00     0  12:14      3.13    0.24    0.94
  C68_2                CONDUIT      3.01     0  12:14      3.11    0.24    0.96
  C69                  CONDUIT      3.47     0  12:14      3.71    0.26    0.99
  C70_1                CONDUIT     32.00     0  12:01      1.33    0.45    0.60
  C70_2                CONDUIT     33.19     0  12:00      1.38    0.24    0.70
  C78                  CONDUIT     25.47     0  12:00      1.06    0.32    0.75
  C84                  CONDUIT     17.52     0  11:59      0.74    0.22    0.74
  C85                  CONDUIT     16.96     0  14:05      0.76    0.19    0.74
  C86                  CONDUIT     14.87     0  11:59      0.77    0.19    0.74
  C90_1                CONDUIT      0.40     0  12:15      1.54    0.10    0.63
  C90_2                CONDUIT      0.71     0  11:50      2.38    0.18    0.87
  C96                  CONDUIT      1.38     0  12:15      2.65    0.43    0.44
  
  
  ***************************
  Flow Classification Summary
  ***************************
  
  -------------------------------------------------------------------------------------
                      Adjusted    ---------- Fraction of Time in Flow Class ---------- 
                       /Actual         Up    Down  Sub   Sup   Up    Down  Norm  Inlet 
  Conduit               Length    Dry  Dry   Dry   Crit  Crit  Crit  Crit  Ltd   Ctrl  
  -------------------------------------------------------------------------------------
  C103_1                  1.00   0.38  0.00  0.00  0.62  0.00  0.00  0.00  0.61  0.00
  C103_3                  1.00   0.38  0.00  0.00  0.62  0.00  0.00  0.00  0.32  0.00
  C103_4                  1.00   0.38  0.00  0.00  0.62  0.00  0.00  0.00  0.19  0.00
  C108                    1.00   0.38  0.00  0.00  0.62  0.00  0.00  0.00  0.59  0.00
  C110                    1.00   0.38  0.00  0.00  0.50  0.00  0.00  0.12  0.04  0.00
  C125_1                  1.00   0.38  0.00  0.00  0.51  0.00  0.00  0.10  0.08  0.00
  C125_2                  1.00   0.38  0.00  0.00  0.62  0.00  0.00  0.00  0.00  0.00
  C147                    1.00   0.38  0.00  0.00  0.62  0.00  0.00  0.00  0.28  0.00
  C147_2                  1.00   0.38  0.00  0.00  0.50  0.12  0.00  0.00  0.06  0.00
  C147_5                  1.00   0.38  0.00  0.00  0.46  0.16  0.00  0.00  0.62  0.00
  C15                     1.00   0.38  0.00  0.00  0.62  0.00  0.00  0.00  0.19  0.00
  C152                    1.00   0.38  0.00  0.00  0.62  0.00  0.00  0.00  0.00  0.00
  C152_1                  1.00   0.38  0.00  0.00  0.62  0.00  0.00  0.00  0.04  0.00
  C158                    1.00   0.38  0.00  0.00  0.50  0.00  0.00  0.12  0.00  0.00
  C159                    1.00   0.38  0.01  0.00  0.61  0.00  0.00  0.00  0.01  0.00
  C160                    1.00   0.39  0.02  0.00  0.59  0.00  0.00  0.00  0.00  0.00
  C167                    1.00   0.38  0.03  0.00  0.59  0.00  0.00  0.00  0.00  0.00
  C168                    1.00   0.63  0.37  0.00  0.00  0.00  0.00  0.00  0.00  0.00
  C174                    1.00   0.38  0.00  0.00  0.62  0.00  0.00  0.00  0.00  0.00
  C18_1                   1.00   0.38  0.01  0.00  0.61  0.00  0.00  0.00  0.02  0.00
  C18_2                   1.00   0.38  0.00  0.00  0.62  0.00  0.00  0.00  0.00  0.00
  C2                      1.00   0.38  0.02  0.00  0.60  0.00  0.00  0.00  0.02  0.00
  C26                     1.00   0.38  0.00  0.00  0.41  0.00  0.00  0.21  0.41  0.00
  C27                     1.00   0.38  0.00  0.00  0.62  0.00  0.00  0.00  0.31  0.00
  C38                     1.00   0.38  0.00  0.00  0.50  0.00  0.00  0.12  0.00  0.00
  C47                     1.00   0.38  0.00  0.00  0.62  0.00  0.00  0.00  0.26  0.00
  C57                     1.00   0.38  0.00  0.00  0.62  0.00  0.00  0.00  0.00  0.00
  C62                     1.00   0.38  0.00  0.00  0.62  0.00  0.00  0.00  0.00  0.00
  C64                     1.00   0.38  0.00  0.00  0.62  0.00  0.00  0.00  0.26  0.00
  C64_2                   1.00   0.38  0.00  0.00  0.62  0.00  0.00  0.00  0.19  0.00
  C68_1                   1.00   0.38  0.00  0.00  0.62  0.00  0.00  0.00  0.00  0.00
  C68_2                   1.00   0.38  0.00  0.00  0.62  0.00  0.00  0.00  0.04  0.00
  C69                     1.00   0.38  0.00  0.00  0.50  0.00  0.00  0.12  0.00  0.00
  C70_1                   1.00   0.39  0.02  0.00  0.60  0.00  0.00  0.00  0.00  0.00
  C70_2                   1.00   0.00  0.00  0.00  1.00  0.00  0.00  0.00  0.00  0.00
  C78                     1.00   0.38  0.00  0.00  0.62  0.00  0.00  0.00  0.01  0.00
  C84                     1.00   0.38  0.00  0.00  0.62  0.00  0.00  0.00  0.00  0.00
  C85                     1.00   0.38  0.01  0.00  0.60  0.00  0.00  0.00  0.00  0.00
  C86                     1.00   0.38  0.00  0.00  0.62  0.00  0.00  0.00  0.02  0.00
  C90_1                   1.00   0.38  0.00  0.00  0.62  0.00  0.00  0.00  0.21  0.00
  C90_2                   1.00   0.38  0.00  0.00  0.50  0.00  0.00  0.12  0.08  0.00
  C96                     1.00   0.38  0.00  0.00  0.62  0.00  0.00  0.00  0.00  0.00
  
  
  *************************
  Conduit Surcharge Summary
  *************************
  
  ----------------------------------------------------------------------------
                                                           Hours        Hours 
                         --------- Hours Full --------   Above Full   Capacity
  Conduit                Both Ends  Upstream  Dnstream   Normal Flow   Limited
  ----------------------------------------------------------------------------
  C110                        0.01      0.01      7.68      0.01         0.01
  C125_1                      0.01      0.01      9.29      0.01         0.01
  C15                         0.01      0.01      7.22      0.01         0.01
  C152                        0.01      0.01      0.01      0.94         0.01
  C158                        7.22      7.22      7.52      0.01         0.01
  C26                         0.01      0.01      5.95      0.01         0.01
  C38                         7.25      7.25      8.03      0.01         0.01
  C69                         0.01      0.01      5.97      0.01         0.01
  C90_2                       0.01      0.01      8.05      0.01         0.01
  

  Analysis begun on:  Tue Jun 10 04:19:32 2025
  Analysis ended on:  Tue Jun 10 04:19:33 2025
  Total elapsed time: 00:00:01