
  EPA STORM WATER MANAGEMENT MODEL - VERSION 5.2 (Build 5.2.4)
  PYSWMM TOOLKIT API - VERSION v1.0 (2024-04-17)
  ------------------------------------------------------------

  WARNING 04: minimum elevation drop used for Conduit C70_2
  WARNING 04: minimum elevation drop used for Conduit C85
  
  *************
  Element Count
  *************
  Number of rain gages ...... 1
  Number of subcatchments ... 39
  Number of nodes ........... 43
  Number of links ........... 42
  Number of pollutants ...... 0
  Number of land uses ....... 0
  
  
  ****************
  Raingage Summary
  ****************
                                                      Data       Recording
  Name                 Data Source                    Type       Interval 
  ------------------------------------------------------------------------
  rain_gage            rain_gage_timeseries           INTENSITY   15 min.
  
  
  ********************
  Subcatchment Summary
  ********************
  Name                       Area     Width   %Imperv    %Slope Rain Gage            Outlet              
  -----------------------------------------------------------------------------------------------------------
  Sub_1                      2.62    272.79     55.00    3.9580 rain_gage            J89                 
  Sub_10                     2.19    296.41     77.00    2.4860 rain_gage            J12                 
  Sub_11                     0.67    130.53     57.00    5.0240 rain_gage            J6                  
  Sub_12                     5.31    283.97     49.00    3.4940 rain_gage            J12                 
  Sub_13                     4.38    341.66     50.00    2.9930 rain_gage            J2                  
  Sub_14                    14.91    412.40     52.00    3.9710 rain_gage            J155                
  Sub_15                     3.68    325.75     59.00    4.8800 rain_gage            J96                 
  Sub_16                     2.81    372.64     48.00    3.5770 rain_gage            J32                 
  Sub_17                     4.94    458.98     41.00    4.7410 rain_gage            J30                 
  Sub_18                     1.52    250.00     79.00    2.3090 rain_gage            J8                  
  Sub_19                     2.15    372.00     78.00    3.4760 rain_gage            J121                
  Sub_2                      4.81    406.94     64.00    3.8880 rain_gage            J6                  
  Sub_20                    11.54    261.37     57.00    3.9380 rain_gage            J13                 
  Sub_21                     2.48    159.75     71.00    3.2870 rain_gage            J46                 
  Sub_22                     0.94    200.00     69.00    3.2890 rain_gage            J118                
  Sub_23                     2.95    250.00     63.00    3.6520 rain_gage            J103                
  Sub_24                     5.93    412.94     59.00    3.2030 rain_gage            J4                  
  Sub_25                     3.38    300.00     42.00    3.1260 rain_gage            J52                 
  Sub_26                     6.44    408.85     60.00    3.6440 rain_gage            J1                  
  Sub_27                     2.29    250.00     67.00    3.4680 rain_gage            J118                
  Sub_28                    10.61    229.01     71.00    3.1810 rain_gage            J43                 
  Sub_29                     4.46    300.00     76.00    3.1960 rain_gage            J7                  
  Sub_3                      2.79    466.00     72.00    3.7700 rain_gage            outfall             
  Sub_30                     2.64    390.64     74.00    3.0810 rain_gage            J57                 
  Sub_31                     2.90    292.33     72.00    2.7780 rain_gage            J156                
  Sub_32                     7.63    310.58     77.00    2.8180 rain_gage            J126                
  Sub_33                     3.19    461.41     83.00    3.0790 rain_gage            J63                 
  Sub_34                     2.29    250.00     65.00    2.6240 rain_gage            J5                  
  Sub_35                     2.76    217.64     70.00    2.8170 rain_gage            J3                  
  Sub_36                     1.43    235.88     50.00    2.2300 rain_gage            J70                 
  Sub_37                     1.87    251.70     78.00    3.2300 rain_gage            J71                 
  Sub_38                     4.37    354.85     73.00    3.2410 rain_gage            J23                 
  Sub_39                    11.94    244.72     56.00    2.9530 rain_gage            J147                
  Sub_4                      2.18    358.74     82.00    3.9740 rain_gage            J11                 
  Sub_5                      2.02    268.69     96.00    3.0480 rain_gage            J25                 
  Sub_6                      1.69    314.60     85.00    3.7140 rain_gage            J26                 
  Sub_7                      0.86    147.58     75.00    3.3650 rain_gage            J17                 
  Sub_8                      0.37     73.53     39.00    3.1440 rain_gage            J10                 
  Sub_9                      4.52    345.46     42.00    3.8900 rain_gage            J9                  


  *******************
  LID Control Summary
  *******************
                                   No. of        Unit        Unit      % Area    % Imperv      % Perv
  Subcatchment     LID Control      Units        Area       Width     Covered     Treated     Treated
  ---------------------------------------------------------------------------------------------------
  Sub_1            rain_garden          1      100.00        0.00        0.09        0.00        0.00
  Sub_2            rain_barrel          1       50.00        0.00        0.02        0.00        0.00
  
  
  ************
  Node Summary
  ************
                                           Invert      Max.    Ponded    External
  Name                 Type                 Elev.     Depth      Area    Inflow  
  -------------------------------------------------------------------------------
  J1                   JUNCTION             -6.11     11.75       0.0
  J10                  JUNCTION             -6.30     10.18       0.0
  J103                 JUNCTION             -6.19     10.56       0.0
  J104                 JUNCTION             -6.22     10.06       0.0
  J11                  JUNCTION              0.00      4.57       0.0
  J118                 JUNCTION             -6.18     12.12       0.0
  J12                  JUNCTION             -1.49      6.08       0.0
  J121                 JUNCTION             -1.01      9.50       0.0
  J126                 JUNCTION              2.71      5.20       0.0
  J13                  JUNCTION             -6.14     12.38       0.0
  J14                  JUNCTION             -6.30     10.18       0.0
  J147                 JUNCTION              2.00      4.84       0.0
  J151                 JUNCTION             -6.29     10.14       0.0
  J156                 JUNCTION              2.00      6.65       0.0
  J17                  JUNCTION             -2.21      6.73       0.0
  J18                  JUNCTION             -6.29     10.21       0.0
  J2                   JUNCTION             -0.37      7.68       0.0
  J23                  JUNCTION              1.98      4.73       0.0
  J25                  JUNCTION             -0.96      9.42       0.0
  J26                  JUNCTION             -1.44      7.94       0.0
  J27                  JUNCTION             -2.16      4.90       0.0
  J3                   JUNCTION             -0.57      9.12       0.0
  J30                  JUNCTION             -6.26      9.78       0.0
  J32                  JUNCTION             -6.23     10.58       0.0
  J4                   JUNCTION             -1.20      7.63       0.0
  J43                  JUNCTION             -1.70      8.65       0.0
  J44                  JUNCTION             -6.18     12.57       0.0
  J46                  JUNCTION             -6.16     11.43       0.0
  J5                   JUNCTION             -1.09      8.97       0.0
  J50                  JUNCTION             -6.15     11.76       0.0
  J52                  JUNCTION             -6.13     12.49       0.0
  J57                  JUNCTION             -1.59      8.82       0.0
  J6                   JUNCTION             -2.09      5.83       0.0
  J63                  JUNCTION              1.87      4.03       0.0
  J7                   JUNCTION             -0.42      6.53       0.0
  J70                  JUNCTION              2.00      7.06       0.0
  J71                  JUNCTION              1.80      7.50       0.0
  J8                   JUNCTION             -1.37      8.64       0.0
  J89                  JUNCTION             -1.00      6.26       0.0
  J9                   JUNCTION             -2.20      4.44       0.0
  J96                  JUNCTION             -1.97      5.15       0.0
  outfall              OUTFALL              -6.30     10.00       0.0
  J155                 STORAGE              -4.00      7.18       0.0
  
  
  ************
  Link Summary
  ************
  Name             From Node        To Node          Type            Length    %Slope Roughness
  ---------------------------------------------------------------------------------------------
  C103_1           J71              J3               CONDUIT          380.3    0.6233    0.0100
  C103_3           J3               J5               CONDUIT          261.0    0.2000    0.0100
  C103_4           J5               J57              CONDUIT          252.8    0.2000    0.0100
  C108             J70              J71              CONDUIT          121.0    0.1612    0.0100
  C110             J43              J44              CONDUIT          240.0    0.1667    0.0100
  C125_1           J57              J1               CONDUIT          257.8    0.9757    0.0100
  C125_2           J1               J52              CONDUIT          254.2    0.0100    0.0100
  C147             J7               J4               CONDUIT          393.0    0.2000    0.0100
  C147_2           J4               J57              CONDUIT          194.0    0.2000    0.0100
  C147_5           J63              J7               CONDUIT          273.4    0.8371    0.0100
  C15              J26              J17              CONDUIT          386.0    0.2000    0.0100
  C152             J23              J63              CONDUIT          346.2    0.0323    0.0100
  C152_1           J147             J23              CONDUIT           56.8    0.0317    0.0100
  C158             J17              J151             CONDUIT           40.0    0.2000    0.0100
  C159             J151             J10              CONDUIT           65.0    0.0100    0.0100
  C160             J18              J151             CONDUIT           65.0    0.0100    0.0100
  C167             J104             J32              CONDUIT           77.0    0.0100    0.0100
  C168             J155             J104             CONDUIT           15.0    6.6815    0.0100
  C174             J156             J71              CONDUIT          226.0    0.0863    0.0100
  C18_1            J52              J13              CONDUIT           24.9    0.0104    0.0100
  C18_2            J13              J50              CONDUIT          142.9    0.0104    0.0100
  C2               J50              J46              CONDUIT           71.3    0.0100    0.0100
  C26              J11              J14              CONDUIT          445.6    0.2917    0.0100
  C27              J2               J89              CONDUIT          314.9    0.2000    0.0100
  C38              J96              J32              CONDUIT          130.0    0.1938    0.0100
  C47              J25              J26              CONDUIT          241.0    0.2000    0.0100
  C57              J103             J104             CONDUIT          262.0    0.0100    0.0100
  C62              J32              J30              CONDUIT          305.9    0.0100    0.0100
  C64              J89              J12              CONDUIT          237.9    0.2039    0.0100
  C64_2            J12              J6               CONDUIT          303.5    0.2000    0.0100
  C68_1            J6               J27              CONDUIT           38.4    0.1808    0.0100
  C68_2            J27              J9               CONDUIT           19.2    0.1804    0.0100
  C69              J9               J10              CONDUIT           52.0    0.2000    0.0100
  C70_1            J10              J14              CONDUIT          279.9    0.0046    0.0100
  C70_2            J14              outfall          CONDUIT            5.5    0.0183    0.0100
  C78              J30              J18              CONDUIT          281.0    0.0100    0.0100
  C84              J118             J103             CONDUIT          163.0    0.0100    0.0100
  C85              J44              J118             CONDUIT            8.0    0.0125    0.0100
  C86              J46              J44              CONDUIT          189.0    0.0100    0.0100
  C90_1            J121             J8               CONDUIT          179.1    0.2000    0.0100
  C90_2            J8               J32              CONDUIT          429.7    0.2000    0.0100
  C96              J126             J63              CONDUIT          582.0    0.1436    0.0100
  
  
  *********************
  Cross Section Summary
  *********************
                                        Full     Full     Hyd.     Max.   No. of     Full
  Conduit          Shape               Depth     Area     Rad.    Width  Barrels     Flow
  ---------------------------------------------------------------------------------------
  C103_1           CIRCULAR             1.50     1.77     0.38     1.50        1    10.78
  C103_3           CIRCULAR             1.50     1.77     0.38     1.50        1     6.11
  C103_4           CIRCULAR             1.50     1.77     0.38     1.50        1     6.11
  C108             CIRCULAR             1.25     1.23     0.31     1.25        1     3.37
  C110             CIRCULAR             1.50     1.77     0.38     1.50        1     5.57
  C125_1           CIRCULAR             3.00     7.07     0.75     3.00        1    85.65
  C125_2           RECT_CLOSED          8.00    40.00     1.54     5.00        1    79.21
  C147             CIRCULAR             2.00     3.14     0.50     2.00        1    13.15
  C147_2           CIRCULAR             2.00     3.14     0.50     2.00        1    13.15
  C147_5           CIRCULAR             2.01     3.16     0.50     2.01        1    27.16
  C15              CIRCULAR             1.75     2.41     0.44     1.75        1     9.21
  C152             CIRCULAR             1.26     1.24     0.31     1.26        1     1.53
  C152_1           CIRCULAR             1.26     1.24     0.31     1.26        1     1.51
  C158             CIRCULAR             1.75     2.41     0.44     1.75        1     9.21
  C159             RECT_CLOSED          8.00    40.00     1.54     5.00        1    79.21
  C160             RECT_CLOSED          8.00    40.00     1.54     5.00        1    79.21
  C167             RECT_CLOSED          8.00    40.00     1.54     5.00        1    79.21
  C168             CIRCULAR             2.00     3.14     0.50     2.00        1    76.02
  C174             CIRCULAR             1.00     0.79     0.25     1.00        1     1.36
  C18_1            RECT_CLOSED          8.00    40.00     1.54     5.00        1    80.82
  C18_2            RECT_CLOSED          8.00    40.00     1.54     5.00        1    80.92
  C2               RECT_CLOSED          8.00    40.00     1.54     5.00        1    79.21
  C26              CIRCULAR             1.00     0.79     0.25     1.00        1     2.50
  C27              CIRCULAR             1.25     1.23     0.31     1.25        1     3.76
  C38              CIRCULAR             1.50     1.77     0.38     1.50        1     6.01
  C47              CIRCULAR             1.75     2.41     0.44     1.75        1     9.21
  C57              RECT_CLOSED          8.00    40.00     1.54     5.00        1    79.21
  C62              RECT_CLOSED          8.00    40.00     1.54     5.00        1    79.21
  C64              CIRCULAR             2.00     3.14     0.50     2.00        1    13.28
  C64_2            CIRCULAR             2.00     3.14     0.50     2.00        1    13.15
  C68_1            CIRCULAR             2.00     3.14     0.50     2.00        1    12.51
  C68_2            CIRCULAR             2.00     3.14     0.50     2.00        1    12.49
  C69              CIRCULAR             2.00     3.14     0.50     2.00        1    13.15
  C70_1            RECT_CLOSED         10.00    50.00     1.67     5.00        1    70.50
  C70_2            RECT_CLOSED         10.00    50.00     1.67     5.00        1   141.22
  C78              RECT_CLOSED          8.00    40.00     1.54     5.00        1    79.21
  C84              RECT_CLOSED          8.00    40.00     1.54     5.00        1    79.21
  C85              RECT_CLOSED          8.00    40.00     1.54     5.00        1    88.56
  C86              RECT_CLOSED          8.00    40.00     1.54     5.00        1    79.21
  C90_1            RECT_CLOSED          1.50     1.36     0.28     0.91        1     3.91
  C90_2            RECT_CLOSED          1.50     1.36     0.28     0.91        1     3.91
  C96              CIRCULAR             1.25     1.23     0.31     1.25        1     3.18
  
  
  ****************
  Analysis Options
  ****************
  Flow Units ............... CFS
  Process Models:
    Rainfall/Runoff ........ YES
    RDII ................... NO
    Snowmelt ............... NO
    Groundwater ............ NO
    Flow Routing ........... YES
    Ponding Allowed ........ NO
    Water Quality .......... NO
  Infiltration Method ...... HORTON
  Flow Routing Method ...... DYNWAVE
  Surcharge Method ......... EXTRAN
  Starting Date ............ 06/01/2025 00:00:00
  Ending Date .............. 06/01/2025 23:45:00
  Antecedent Dry Days ...... 0.0
  Report Time Step ......... 00:01:00
  Wet Time Step ............ 00:05:00
  Dry Time Step ............ 00:05:00
  Routing Time Step ........ 5.00 sec
  Variable Time Step ....... YES
  Maximum Trials ........... 8
  Number of Threads ........ 2
  Head Tolerance ........... 0.005000 ft
  
  
  **************************        Volume         Depth
  Runoff Quantity Continuity     acre-feet        inches
  **************************     ---------       -------
  Initial LID Storage ......         0.001         0.000
  Total Precipitation ......        12.744         0.977
  Evaporation Loss .........         0.000         0.000
  Infiltration Loss ........         2.780         0.213
  Surface Runoff ...........         9.664         0.741
  Final Storage ............         0.308         0.024
  Continuity Error (%) .....        -0.053
  
  
  **************************        Volume        Volume
  Flow Routing Continuity        acre-feet      10^6 gal
  **************************     ---------     ---------
  Dry Weather Inflow .......         0.000         0.000
  Wet Weather Inflow .......         9.663         3.149
  Groundwater Inflow .......         0.000         0.000
  RDII Inflow ..............         0.000         0.000
  External Inflow ..........         0.000         0.000
  External Outflow .........         6.361         2.073
  Flooding Loss ............         0.000         0.000
  Evaporation Loss .........         0.000         0.000
  Exfiltration Loss ........         0.000         0.000
  Initial Stored Volume ....         1.621         0.528
  Final Stored Volume ......         4.934         1.608
  Continuity Error (%) .....        -0.097
  
  
  *************************
  Highest Continuity Errors
  *************************
  Node J26 (4.45%)
  Node J30 (3.95%)
  Node J8 (3.94%)
  Node J17 (3.86%)
  Node J1 (2.99%)
  
  
  ***************************
  Time-Step Critical Elements
  ***************************
  Link C70_2 (37.81%)
  Link C168 (24.67%)
  Link C85 (15.95%)
  
  
  ********************************
  Highest Flow Instability Indexes
  ********************************
  Link C85 (19)
  Link C84 (13)
  Link C86 (12)
  Link C68_2 (10)
  Link C69 (10)
  
  
  *********************************
  Most Frequent Nonconverging Nodes
  *********************************
  Node outfall (1.16%)
  Node J27 (0.61%)
  Node J9 (0.52%)
  Node J6 (0.31%)
  Node J8 (0.14%)
  
  
  *************************
  Routing Time Step Summary
  *************************
  Minimum Time Step           :     0.50 sec
  Average Time Step           :     2.02 sec
  Maximum Time Step           :     5.00 sec
  % of Time in Steady State   :     0.00
  Average Iterations per Step :     2.25
  % of Steps Not Converging   :     1.16
  Time Step Frequencies       :
      5.000 -  3.155 sec      :    31.24 %
      3.155 -  1.991 sec      :     7.20 %
      1.991 -  1.256 sec      :     7.87 %
      1.256 -  0.792 sec      :     4.22 %
      0.792 -  0.500 sec      :    49.46 %
  
  
  ***************************
  Subcatchment Runoff Summary
  ***************************
  
  ------------------------------------------------------------------------------------------------------------------------------
                            Total      Total      Total      Total     Imperv       Perv      Total       Total     Peak  Runoff
                           Precip      Runon       Evap      Infil     Runoff     Runoff     Runoff      Runoff   Runoff   Coeff
  Subcatchment                 in         in         in         in         in         in         in    10^6 gal      CFS
  ------------------------------------------------------------------------------------------------------------------------------
  Sub_1                      0.98       0.00       0.00       0.24       0.52       0.20       0.71        0.05     0.92   0.731
  Sub_10                     0.98       0.00       0.00       0.12       0.72       0.10       0.83        0.05     0.84   0.848
  Sub_11                     0.98       0.00       0.00       0.22       0.54       0.20       0.73        0.01     0.24   0.749
  Sub_12                     0.98       0.00       0.00       0.29       0.46       0.21       0.67        0.10     1.68   0.684
  Sub_13                     0.98       0.00       0.00       0.28       0.47       0.21       0.68        0.08     1.45   0.697
  Sub_14                     0.98       0.00       0.00       0.29       0.49       0.18       0.67        0.27     4.48   0.685
  Sub_15                     0.98       0.00       0.00       0.22       0.55       0.18       0.74        0.07     1.32   0.753
  Sub_16                     0.98       0.00       0.00       0.28       0.45       0.23       0.68        0.05     0.97   0.697
  Sub_17                     0.98       0.00       0.00       0.32       0.39       0.25       0.64        0.09     1.62   0.655
  Sub_18                     0.98       0.00       0.00       0.11       0.74       0.10       0.84        0.03     0.58   0.858
  Sub_19                     0.98       0.00       0.00       0.11       0.73       0.10       0.83        0.05     0.83   0.854
  Sub_2                      0.98       0.00       0.00       0.19       0.60       0.16       0.76        0.10     1.75   0.778
  Sub_20                     0.98       0.00       0.00       0.26       0.54       0.16       0.69        0.22     3.54   0.711
  Sub_21                     0.98       0.00       0.00       0.16       0.67       0.13       0.79        0.05     0.92   0.812
  Sub_22                     0.98       0.00       0.00       0.16       0.65       0.14       0.79        0.02     0.35   0.809
  Sub_23                     0.98       0.00       0.00       0.20       0.59       0.16       0.75        0.06     1.07   0.772
  Sub_24                     0.98       0.00       0.00       0.23       0.55       0.18       0.73        0.12     2.07   0.747
  Sub_25                     0.98       0.00       0.00       0.32       0.40       0.25       0.64        0.06     1.08   0.655
  Sub_26                     0.98       0.00       0.00       0.22       0.56       0.17       0.73        0.13     2.25   0.752
  Sub_27                     0.98       0.00       0.00       0.18       0.63       0.15       0.78        0.05     0.85   0.795
  Sub_28                     0.98       0.00       0.00       0.17       0.67       0.11       0.78        0.22     3.63   0.797
  Sub_29                     0.98       0.00       0.00       0.13       0.71       0.11       0.82        0.10     1.69   0.840
  Sub_3                      0.98       0.00       0.00       0.15       0.68       0.13       0.81        0.06     1.06   0.824
  Sub_30                     0.98       0.00       0.00       0.14       0.70       0.12       0.81        0.06     1.00   0.833
  Sub_31                     0.98       0.00       0.00       0.15       0.68       0.12       0.80        0.06     1.09   0.821
  Sub_32                     0.98       0.00       0.00       0.13       0.72       0.10       0.82        0.17     2.85   0.841
  Sub_33                     0.98       0.00       0.00       0.09       0.78       0.08       0.86        0.07     1.25   0.879
  Sub_34                     0.98       0.00       0.00       0.19       0.61       0.15       0.77        0.05     0.84   0.784
  Sub_35                     0.98       0.00       0.00       0.16       0.66       0.13       0.79        0.06     1.02   0.808
  Sub_36                     0.98       0.00       0.00       0.27       0.47       0.22       0.69        0.03     0.50   0.707
  Sub_37                     0.98       0.00       0.00       0.11       0.73       0.10       0.83        0.04     0.72   0.853
  Sub_38                     0.98       0.00       0.00       0.14       0.69       0.12       0.81        0.10     1.64   0.825
  Sub_39                     0.98       0.00       0.00       0.28       0.53       0.15       0.68        0.22     3.51   0.695
  Sub_4                      0.98       0.00       0.00       0.09       0.77       0.08       0.85        0.05     0.85   0.874
  Sub_5                      0.98       0.00       0.00       0.02       0.90       0.02       0.92        0.05     0.81   0.943
  Sub_6                      0.98       0.00       0.00       0.08       0.80       0.07       0.87        0.04     0.66   0.889
  Sub_7                      0.98       0.00       0.00       0.13       0.71       0.11       0.82        0.02     0.33   0.839
  Sub_8                      0.98       0.00       0.00       0.32       0.37       0.27       0.64        0.01     0.12   0.653
  Sub_9                      0.98       0.00       0.00       0.32       0.40       0.24       0.64        0.08     1.43   0.654
  

  ***********************
  LID Performance Summary
  ***********************

  --------------------------------------------------------------------------------------------------------------------
                                         Total      Evap     Infil   Surface    Drain    Initial     Final  Continuity
                                        Inflow      Loss      Loss   Outflow   Outflow   Storage   Storage       Error
  Subcatchment      LID Control             in        in        in        in        in        in        in           %
  --------------------------------------------------------------------------------------------------------------------
  Sub_1             rain_garden           0.98      0.00      3.40      0.00      0.00      6.00      3.58       -0.08
  Sub_2             rain_barrel           0.00      0.00      0.00      0.00      0.00      0.00      0.00      100.00
  
  ******************
  Node Depth Summary
  ******************
  
  ---------------------------------------------------------------------------------
                                 Average  Maximum  Maximum  Time of Max    Reported
                                   Depth    Depth      HGL   Occurrence   Max Depth
  Node                 Type         Feet     Feet     Feet  days hr:min        Feet
  ---------------------------------------------------------------------------------
  J1                   JUNCTION     4.68     6.91     0.80     0  14:05        6.90
  J10                  JUNCTION     4.82     7.10     0.80     0  14:05        7.10
  J103                 JUNCTION     4.74     6.99     0.80     0  14:04        6.99
  J104                 JUNCTION     4.76     7.02     0.80     0  14:06        7.02
  J11                  JUNCTION     0.26     0.80     0.80     0  14:06        0.80
  J118                 JUNCTION     4.73     6.98     0.80     0  14:06        6.97
  J12                  JUNCTION     1.22     2.29     0.80     0  14:06        2.29
  J121                 JUNCTION     0.85     3.92     2.91     0  13:45        1.82
  J126                 JUNCTION     0.39     0.94     3.65     0  12:15        0.94
  J13                  JUNCTION     4.70     6.93     0.80     0  14:03        6.93
  J14                  JUNCTION     4.82     7.10     0.80     0  14:05        7.10
  J147                 JUNCTION     0.82     2.20     4.20     0  12:15        2.20
  J151                 JUNCTION     4.82     7.09     0.80     0  14:05        7.09
  J156                 JUNCTION     0.28     0.65     2.65     0  12:15        0.65
  J17                  JUNCTION     1.69     3.01     0.80     0  14:05        3.01
  J18                  JUNCTION     4.81     7.09     0.80     0  14:04        7.09
  J2                   JUNCTION     0.46     1.18     0.81     0  14:06        1.17
  J23                  JUNCTION     0.81     2.12     4.10     0  12:15        2.12
  J25                  JUNCTION     0.80     1.77     0.81     0  14:05        1.76
  J26                  JUNCTION     1.15     2.25     0.81     0  14:05        2.24
  J27                  JUNCTION     1.69     2.96     0.80     0  14:05        2.96
  J3                   JUNCTION     0.63     1.37     0.81     0  14:04        1.37
  J30                  JUNCTION     4.79     7.06     0.80     0  14:05        7.06
  J32                  JUNCTION     4.77     7.03     0.80     0  14:06        7.03
  J4                   JUNCTION     1.13     2.02     0.82     0  14:04        2.02
  J43                  JUNCTION     1.39     6.26     4.56     0  11:37        2.50
  J44                  JUNCTION     4.73     6.97     0.80     0  14:06        6.97
  J46                  JUNCTION     4.72     6.96     0.80     0  14:06        6.96
  J5                   JUNCTION     0.95     1.89     0.80     0  14:04        1.89
  J50                  JUNCTION     4.71     6.95     0.80     0  14:03        6.95
  J52                  JUNCTION     4.70     6.93     0.80     0  14:03        6.93
  J57                  JUNCTION     1.27     2.39     0.80     0  14:04        2.39
  J6                   JUNCTION     1.65     2.89     0.80     0  14:05        2.89
  J63                  JUNCTION     0.36     0.80     2.67     0  12:15        0.80
  J7                   JUNCTION     0.76     1.40     0.98     0  12:16        1.40
  J70                  JUNCTION     0.14     0.33     2.33     0  12:15        0.33
  J71                  JUNCTION     0.20     0.47     2.28     0  12:15        0.47
  J8                   JUNCTION     1.11     8.64     7.27     0  13:40        4.01
  J89                  JUNCTION     0.86     1.80     0.80     0  14:06        1.80
  J9                   JUNCTION     1.72     2.99     0.80     0  14:05        2.99
  J96                  JUNCTION     1.52     2.77     0.80     0  14:06        2.77
  outfall              OUTFALL      7.28    10.00     3.70     0  06:00       10.00
  J155                 STORAGE      2.71     3.72    -0.28     0  23:45        3.72
  
  
  *******************
  Node Inflow Summary
  *******************
  
  -------------------------------------------------------------------------------------------------
                                  Maximum  Maximum                  Lateral       Total        Flow
                                  Lateral    Total  Time of Max      Inflow      Inflow     Balance
                                   Inflow   Inflow   Occurrence      Volume      Volume       Error
  Node                 Type           CFS      CFS  days hr:min    10^6 gal    10^6 gal     Percent
  -------------------------------------------------------------------------------------------------
  J1                   JUNCTION      2.25    21.14     0  11:44       0.129         1.2       3.080
  J10                  JUNCTION      0.12    56.68     0  11:42     0.00638        2.11       1.887
  J103                 JUNCTION      1.07    36.71     0  11:42      0.0604         1.7       2.920
  J104                 JUNCTION      0.00    38.05     0  11:43           0        1.72       2.287
  J11                  JUNCTION      0.85     0.85     0  12:15      0.0505      0.0506       0.634
  J118                 JUNCTION      1.20    35.48     0  11:43      0.0687        1.65       0.708
  J12                  JUNCTION      2.52     4.89     0  12:14       0.146        0.28       1.555
  J121                 JUNCTION      0.83     0.83     0  12:15      0.0488      0.0492       1.047
  J126                 JUNCTION      2.85     2.85     0  12:15        0.17        0.17      -0.002
  J13                  JUNCTION      3.54    27.26     0  11:43       0.218        1.41       1.348
  J14                  JUNCTION      0.00    57.11     0  11:42           0        2.06       1.668
  J147                 JUNCTION      3.51     3.51     0  12:30        0.22        0.22       0.001
  J151                 JUNCTION      0.00    49.58     0  11:41           0        1.72       0.895
  J156                 JUNCTION      1.09     1.09     0  12:15      0.0632      0.0632      -0.001
  J17                  JUNCTION      0.33     2.57     0  11:39      0.0191        0.11       4.012
  J18                  JUNCTION      0.00    46.65     0  11:42           0        1.64       2.474
  J2                   JUNCTION      1.45     1.45     0  12:15       0.081       0.082       0.171
  J23                  JUNCTION      1.64     5.09     0  12:15      0.0956       0.316       0.004
  J25                  JUNCTION      0.81     1.39     0  11:34      0.0504      0.0516       1.838
  J26                  JUNCTION      0.66     2.34     0  11:33      0.0398      0.0932       4.652
  J27                  JUNCTION      0.00     6.97     0  12:14           0       0.385      -0.840
  J3                   JUNCTION      1.02     3.33     0  12:15      0.0592       0.193       0.430
  J30                  JUNCTION      1.62    44.70     0  11:42      0.0859        1.69       4.116
  J32                  JUNCTION      0.97    42.40     0  11:42       0.052        1.68       2.853
  J4                   JUNCTION      2.07    12.90     0  12:15       0.118        0.78       0.459
  J43                  JUNCTION      3.63     3.63     0  12:15       0.224       0.224       0.996
  J44                  JUNCTION      0.00    33.75     0  11:42           0        1.61       1.969
  J46                  JUNCTION      0.92    29.78     0  11:42      0.0534        1.42       2.079
  J5                   JUNCTION      0.84     4.43     0  11:43      0.0476        0.24       0.879
  J50                  JUNCTION      0.00    28.09     0  11:43           0        1.39       1.753
  J52                  JUNCTION      1.08    23.21     0  11:43      0.0587        1.22       2.611
  J57                  JUNCTION      1.00    18.10     0  12:16      0.0583        1.07       0.718
  J6                   JUNCTION      1.99     6.92     0  12:15       0.113       0.389       1.133
  J63                  JUNCTION      1.25     9.18     0  12:15      0.0745       0.561      -0.017
  J7                   JUNCTION      1.69    10.85     0  12:15      0.0994       0.661       0.063
  J70                  JUNCTION      0.50     0.50     0  12:15      0.0269      0.0269      -0.004
  J71                  JUNCTION      0.72     2.31     0  12:15      0.0424       0.132      -0.089
  J8                   JUNCTION      0.58     1.49     0  11:40      0.0345      0.0844       4.097
  J89                  JUNCTION      0.92     2.37     0  12:15      0.0508       0.135       1.614
  J9                   JUNCTION      1.43     8.41     0  12:14      0.0784       0.465      -0.416
  J96                  JUNCTION      1.32     1.32     0  12:15      0.0736      0.0738       1.361
  outfall              OUTFALL       1.06    58.69     0  11:42      0.0611        2.07       0.000
  J155                 STORAGE       4.48     7.79     0  14:07       0.271        1.06      -0.006
  
  
  **********************
  Node Surcharge Summary
  **********************
  
  Surcharging occurs when water rises above the top of the highest conduit.
  ---------------------------------------------------------------------
                                               Max. Height   Min. Depth
                                   Hours       Above Crown    Below Rim
  Node                 Type      Surcharged           Feet         Feet
  ---------------------------------------------------------------------
  J12                  JUNCTION        1.26          0.287        3.792
  J121                 JUNCTION        1.33          2.421        5.575
  J147                 JUNCTION        1.80          0.941        2.648
  J17                  JUNCTION       12.18          1.262        3.721
  J23                  JUNCTION        1.76          0.865        2.608
  J25                  JUNCTION        0.09          0.019        7.649
  J26                  JUNCTION        2.15          0.497        5.693
  J27                  JUNCTION       11.95          0.960        1.943
  J4                   JUNCTION        0.10          0.020        5.607
  J43                  JUNCTION       12.14          4.756        2.394
  J5                   JUNCTION        1.65          0.392        7.074
  J6                   JUNCTION       11.24          0.891        2.943
  J8                   JUNCTION        3.70          7.137        0.000
  J9                   JUNCTION       12.08          0.995        1.445
  J96                  JUNCTION       12.18          1.266        2.387
  
  
  *********************
  Node Flooding Summary
  *********************
  
  Flooding refers to all water that overflows a node, whether it ponds or not.
  --------------------------------------------------------------------------
                                                             Total   Maximum
                                 Maximum   Time of Max       Flood    Ponded
                        Hours       Rate    Occurrence      Volume     Depth
  Node                 Flooded       CFS   days hr:min    10^6 gal      Feet
  --------------------------------------------------------------------------
  J8                      0.01      0.50      0  13:45       0.000     0.000
  
  
  **********************
  Storage Volume Summary
  **********************
  
  ------------------------------------------------------------------------------------------------
                         Average    Avg   Evap  Exfil     Maximum    Max    Time of Max    Maximum
                          Volume   Pcnt   Pcnt   Pcnt      Volume   Pcnt     Occurrence    Outflow
  Storage Unit          1000 ft³   Full   Loss   Loss    1000 ft³   Full    days hr:min        CFS
  ------------------------------------------------------------------------------------------------
  J155                    99.033   31.4    0.0    0.0     141.475   44.9       0  23:45       0.00
  
  
  ***********************
  Outfall Loading Summary
  ***********************
  
  -----------------------------------------------------------
                         Flow       Avg       Max       Total
                         Freq      Flow      Flow      Volume
  Outfall Node           Pcnt       CFS       CFS    10^6 gal
  -----------------------------------------------------------
  outfall               68.33     18.91     58.69       2.073
  -----------------------------------------------------------
  System                68.33     18.91     58.69       2.073
  
  
  ********************
  Link Flow Summary
  ********************
  
  -----------------------------------------------------------------------------
                                 Maximum  Time of Max   Maximum    Max/    Max/
                                  |Flow|   Occurrence   |Veloc|    Full    Full
  Link                 Type          CFS  days hr:min    ft/sec    Flow   Depth
  -----------------------------------------------------------------------------
  C103_1               CONDUIT      2.31     0  12:15      3.27    0.21    0.51
  C103_3               CONDUIT      3.74     0  11:43      3.08    0.61    0.96
  C103_4               CONDUIT      5.05     0  11:43      3.58    0.83    1.00
  C108                 CONDUIT      0.50     0  12:15      1.47    0.15    0.32
  C110                 CONDUIT      3.63     0  12:15      3.25    0.65    1.00
  C125_1               CONDUIT     19.37     0  11:44      7.60    0.23    0.90
  C125_2               CONDUIT     22.47     0  11:43      1.06    0.28    0.86
  C147                 CONDUIT     10.84     0  12:16      4.49    0.82    0.81
  C147_2               CONDUIT     12.93     0  12:16      6.16    0.98    1.00
  C147_5               CONDUIT      9.17     0  12:15      5.17    0.34    0.55
  C15                  CONDUIT      2.28     0  11:39      2.48    0.25    1.00
  C152                 CONDUIT      5.09     0  12:15      4.68    3.33    0.82
  C152_1               CONDUIT      3.51     0  12:30      2.83    2.32    1.00
  C158                 CONDUIT      2.57     0  11:39      2.94    0.28    1.00
  C159                 CONDUIT     49.82     0  11:42      1.62    0.63    0.89
  C160                 CONDUIT     47.77     0  11:41      1.55    0.60    0.89
  C167                 CONDUIT     38.81     0  11:42      1.28    0.49    0.88
  C168                 CONDUIT      6.94     0  14:07      3.91    0.09    0.55
  C174                 CONDUIT      1.09     0  12:15      2.42    0.80    0.56
  C18_1                CONDUIT     24.63     0  11:43      0.99    0.30    0.87
  C18_2                CONDUIT     28.09     0  11:43      1.09    0.35    0.87
  C2                   CONDUIT     29.02     0  11:42      0.97    0.37    0.87
  C26                  CONDUIT      0.85     0  12:15      2.71    0.34    0.90
  C27                  CONDUIT      1.58     0  11:40      2.36    0.42    0.97
  C38                  CONDUIT      1.32     0  12:15      2.47    0.22    1.00
  C47                  CONDUIT      1.59     0  11:38      1.78    0.17    1.00
  C57                  CONDUIT     38.05     0  11:43      1.26    0.48    0.88
  C62                  CONDUIT     43.56     0  11:42      1.43    0.55    0.88
  C64                  CONDUIT      2.87     0  11:39      1.99    0.22    0.95
  C64_2                CONDUIT      4.94     0  12:15      2.78    0.38    1.00
  C68_1                CONDUIT      6.97     0  12:14      3.45    0.56    1.00
  C68_2                CONDUIT      6.98     0  12:14      3.43    0.56    1.00
  C69                  CONDUIT      8.42     0  12:14      4.11    0.64    1.00
  C70_1                CONDUIT     56.34     0  11:42      1.84    0.80    0.71
  C70_2                CONDUIT     57.76     0  11:42      1.89    0.41    0.82
  C78                  CONDUIT     46.65     0  11:42      1.52    0.59    0.88
  C84                  CONDUIT     35.85     0  11:42      1.19    0.45    0.87
  C85                  CONDUIT     34.45     0  11:43      1.14    0.39    0.87
  C86                  CONDUIT     30.91     0  11:42      1.02    0.39    0.87
  C90_1                CONDUIT      0.97     0  11:40      1.75    0.25    1.00
  C90_2                CONDUIT      1.80     0  11:43      2.62    0.46    1.00
  C96                  CONDUIT      2.84     0  12:15      3.11    0.89    0.70
  
  
  ***************************
  Flow Classification Summary
  ***************************
  
  -------------------------------------------------------------------------------------
                      Adjusted    ---------- Fraction of Time in Flow Class ---------- 
                       /Actual         Up    Down  Sub   Sup   Up    Down  Norm  Inlet 
  Conduit               Length    Dry  Dry   Dry   Crit  Crit  Crit  Crit  Ltd   Ctrl  
  -------------------------------------------------------------------------------------
  C103_1                  1.00   0.38  0.00  0.00  0.62  0.00  0.00  0.00  0.62  0.00
  C103_3                  1.00   0.38  0.00  0.00  0.62  0.00  0.00  0.00  0.12  0.00
  C103_4                  1.00   0.38  0.00  0.00  0.62  0.00  0.00  0.00  0.04  0.00
  C108                    1.00   0.38  0.00  0.00  0.62  0.00  0.00  0.00  0.57  0.00
  C110                    1.00   0.38  0.00  0.00  0.52  0.00  0.00  0.10  0.00  0.00
  C125_1                  1.00   0.38  0.00  0.00  0.53  0.00  0.00  0.09  0.01  0.00
  C125_2                  1.00   0.38  0.00  0.00  0.62  0.00  0.00  0.00  0.00  0.00
  C147                    1.00   0.38  0.00  0.00  0.62  0.00  0.00  0.00  0.10  0.00
  C147_2                  1.00   0.38  0.00  0.00  0.57  0.05  0.00  0.00  0.00  0.00
  C147_5                  1.00   0.38  0.00  0.00  0.53  0.09  0.00  0.00  0.62  0.00
  C15                     1.00   0.38  0.00  0.00  0.62  0.00  0.00  0.00  0.09  0.00
  C152                    1.00   0.38  0.00  0.00  0.62  0.00  0.00  0.00  0.00  0.00
  C152_1                  1.00   0.38  0.00  0.00  0.62  0.00  0.00  0.00  0.02  0.00
  C158                    1.00   0.38  0.00  0.00  0.52  0.00  0.00  0.10  0.00  0.00
  C159                    1.00   0.38  0.01  0.00  0.61  0.00  0.00  0.00  0.01  0.00
  C160                    1.00   0.39  0.02  0.00  0.60  0.00  0.00  0.00  0.00  0.00
  C167                    1.00   0.38  0.02  0.00  0.59  0.00  0.00  0.00  0.00  0.00
  C168                    1.00   0.48  0.08  0.00  0.00  0.00  0.43  0.00  0.00  0.00
  C174                    1.00   0.38  0.00  0.00  0.62  0.00  0.00  0.00  0.00  0.00
  C18_1                   1.00   0.38  0.00  0.00  0.62  0.00  0.00  0.00  0.02  0.00
  C18_2                   1.00   0.38  0.00  0.00  0.62  0.00  0.00  0.00  0.00  0.00
  C2                      1.00   0.38  0.02  0.00  0.60  0.00  0.00  0.00  0.02  0.00
  C26                     1.00   0.38  0.00  0.00  0.52  0.00  0.00  0.10  0.11  0.00
  C27                     1.00   0.38  0.00  0.00  0.62  0.00  0.00  0.00  0.12  0.00
  C38                     1.00   0.38  0.00  0.00  0.52  0.00  0.00  0.10  0.00  0.00
  C47                     1.00   0.38  0.00  0.00  0.62  0.00  0.00  0.00  0.10  0.00
  C57                     1.00   0.38  0.00  0.00  0.62  0.00  0.00  0.00  0.00  0.00
  C62                     1.00   0.38  0.00  0.00  0.62  0.00  0.00  0.00  0.00  0.00
  C64                     1.00   0.38  0.00  0.00  0.62  0.00  0.00  0.00  0.11  0.00
  C64_2                   1.00   0.38  0.00  0.00  0.62  0.00  0.00  0.00  0.10  0.00
  C68_1                   1.00   0.38  0.00  0.00  0.62  0.00  0.00  0.00  0.00  0.00
  C68_2                   1.00   0.38  0.00  0.00  0.62  0.00  0.00  0.00  0.03  0.00
  C69                     1.00   0.38  0.00  0.00  0.52  0.00  0.00  0.10  0.00  0.00
  C70_1                   1.00   0.38  0.01  0.00  0.60  0.00  0.00  0.00  0.00  0.00
  C70_2                   1.00   0.00  0.00  0.00  1.00  0.00  0.00  0.00  0.00  0.00
  C78                     1.00   0.38  0.00  0.00  0.62  0.00  0.00  0.00  0.01  0.00
  C84                     1.00   0.38  0.00  0.00  0.62  0.00  0.00  0.00  0.00  0.00
  C85                     1.00   0.38  0.01  0.00  0.61  0.00  0.00  0.00  0.00  0.00
  C86                     1.00   0.38  0.00  0.00  0.62  0.00  0.00  0.00  0.02  0.00
  C90_1                   1.00   0.38  0.00  0.00  0.62  0.00  0.00  0.00  0.07  0.00
  C90_2                   1.00   0.38  0.00  0.00  0.52  0.00  0.00  0.10  0.00  0.00
  C96                     1.00   0.38  0.00  0.00  0.62  0.00  0.00  0.00  0.24  0.00
  
  
  *************************
  Conduit Surcharge Summary
  *************************
  
  ----------------------------------------------------------------------------
                                                           Hours        Hours 
                         --------- Hours Full --------   Above Full   Capacity
  Conduit                Both Ends  Upstream  Dnstream   Normal Flow   Limited
  ----------------------------------------------------------------------------
  C103_3                      0.01      0.01      1.65      0.01         0.01
  C103_4                      1.65      1.65     10.82      0.01         0.01
  C110                       12.14     12.14     12.20      0.01         0.01
  C125_1                      0.01      0.01     12.26      0.01         0.01
  C147                        0.01      0.01      0.10      0.01         0.01
  C147_2                      0.10      0.10      1.65      0.01         0.01
  C15                         2.15      2.15     12.18      0.01         0.01
  C152                        0.01      1.76      0.01      2.88         0.01
  C152_1                      1.76      1.80      1.76      2.43         1.76
  C158                       12.18     12.18     12.19      0.01         0.01
  C26                         0.01      0.01     12.16      0.01         0.01
  C27                         0.01      0.01      2.57      0.01         0.01
  C38                        12.18     12.18     12.22      0.01         0.01
  C47                         0.09      0.09      2.15      0.01         0.01
  C64                         0.01      0.01      1.26      0.01         0.01
  C64_2                       1.26      1.26     11.24      0.01         0.01
  C68_1                      11.23     11.23     11.93      0.01         0.40
  C68_2                      11.92     11.93     12.06      0.01         1.51
  C69                        12.06     12.06     12.16      0.01         0.06
  C90_1                       1.33      1.33      3.69      0.01         0.01
  C90_2                       3.69      3.69     12.22      0.01         0.01
  

  Analysis begun on:  Mon Jun  2 18:16:27 2025
  Analysis ended on:  Mon Jun  2 18:16:29 2025
  Total elapsed time: 00:00:02