
  EPA STORM WATER MANAGEMENT MODEL - VERSION 5.2 (Build 5.2.4)
  PYSWMM TOOLKIT API - VERSION v1.0 (2024-04-17)
  ------------------------------------------------------------

  WARNING 04: minimum elevation drop used for Conduit C70_2
  WARNING 04: minimum elevation drop used for Conduit C85
  
  *************
  Element Count
  *************
  Number of rain gages ...... 1
  Number of subcatchments ... 39
  Number of nodes ........... 43
  Number of links ........... 42
  Number of pollutants ...... 0
  Number of land uses ....... 0
  
  
  ****************
  Raingage Summary
  ****************
                                                      Data       Recording
  Name                 Data Source                    Type       Interval 
  ------------------------------------------------------------------------
  rain_gage            rain_gage_timeseries           INTENSITY   15 min.
  
  
  ********************
  Subcatchment Summary
  ********************
  Name                       Area     Width   %Imperv    %Slope Rain Gage            Outlet              
  -----------------------------------------------------------------------------------------------------------
  Sub_1                      2.62    272.79     55.00    3.9580 rain_gage            J89                 
  Sub_10                     2.19    296.41     77.00    2.4860 rain_gage            J12                 
  Sub_11                     0.67    130.53     57.00    5.0240 rain_gage            J6                  
  Sub_12                     5.31    283.97     49.00    3.4940 rain_gage            J12                 
  Sub_13                     4.38    341.66     50.00    2.9930 rain_gage            J2                  
  Sub_14                    14.91    412.40     52.00    3.9710 rain_gage            J155                
  Sub_15                     3.68    325.75     59.00    4.8800 rain_gage            J96                 
  Sub_16                     2.81    372.64     48.00    3.5770 rain_gage            J32                 
  Sub_17                     4.94    458.98     41.00    4.7410 rain_gage            J30                 
  Sub_18                     1.52    250.00     79.00    2.3090 rain_gage            J8                  
  Sub_19                     2.15    372.00     78.00    3.4760 rain_gage            J121                
  Sub_2                      4.81    406.94     64.00    3.8880 rain_gage            J6                  
  Sub_20                    11.54    261.37     57.00    3.9380 rain_gage            J13                 
  Sub_21                     2.48    159.75     71.00    3.2870 rain_gage            J46                 
  Sub_22                     0.94    200.00     69.00    3.2890 rain_gage            J118                
  Sub_23                     2.95    250.00     63.00    3.6520 rain_gage            J103                
  Sub_24                     5.93    412.94     59.00    3.2030 rain_gage            J4                  
  Sub_25                     3.38    300.00     42.00    3.1260 rain_gage            J52                 
  Sub_26                     6.44    408.85     60.00    3.6440 rain_gage            J1                  
  Sub_27                     2.29    250.00     67.00    3.4680 rain_gage            J118                
  Sub_28                    10.61    229.01     71.00    3.1810 rain_gage            J43                 
  Sub_29                     4.46    300.00     76.00    3.1960 rain_gage            J7                  
  Sub_3                      2.79    466.00     72.00    3.7700 rain_gage            outfall             
  Sub_30                     2.64    390.64     74.00    3.0810 rain_gage            J57                 
  Sub_31                     2.90    292.33     72.00    2.7780 rain_gage            J156                
  Sub_32                     7.63    310.58     77.00    2.8180 rain_gage            J126                
  Sub_33                     3.19    461.41     83.00    3.0790 rain_gage            J63                 
  Sub_34                     2.29    250.00     65.00    2.6240 rain_gage            J5                  
  Sub_35                     2.76    217.64     70.00    2.8170 rain_gage            J3                  
  Sub_36                     1.43    235.88     50.00    2.2300 rain_gage            J70                 
  Sub_37                     1.87    251.70     78.00    3.2300 rain_gage            J71                 
  Sub_38                     4.37    354.85     73.00    3.2410 rain_gage            J23                 
  Sub_39                    11.94    244.72     56.00    2.9530 rain_gage            J147                
  Sub_4                      2.18    358.74     82.00    3.9740 rain_gage            J11                 
  Sub_5                      2.02    268.69     96.00    3.0480 rain_gage            J25                 
  Sub_6                      1.69    314.60     85.00    3.7140 rain_gage            J26                 
  Sub_7                      0.86    147.58     75.00    3.3650 rain_gage            J17                 
  Sub_8                      0.37     73.53     39.00    3.1440 rain_gage            J10                 
  Sub_9                      4.52    345.46     42.00    3.8900 rain_gage            J9                  


  *******************
  LID Control Summary
  *******************
                                   No. of        Unit        Unit      % Area    % Imperv      % Perv
  Subcatchment     LID Control      Units        Area       Width     Covered     Treated     Treated
  ---------------------------------------------------------------------------------------------------
  Sub_12           rain_garden         15       85.00        0.00        0.55        0.00       12.81
  Sub_12           rain_barrel         55        2.95        0.00        0.07       28.65        0.00
  Sub_13           rain_garden         10       85.00        0.00        0.45        0.00       10.59
  Sub_13           rain_barrel         60        2.95        0.00        0.09       37.11        0.00
  Sub_14           rain_garden        100       85.00        0.00        1.31        0.00       32.02
  Sub_14           rain_barrel        240        2.95        0.00        0.11       42.33        0.00
  Sub_15           rain_garden         31       85.00        0.00        1.64        0.00       47.60
  Sub_15           rain_barrel         62        2.95        0.00        0.11       38.74        0.00
  Sub_16           rain_garden          4       85.00        0.00        0.28        0.00        6.32
  Sub_16           rain_barrel         25        2.95        0.00        0.06       25.19        0.00
  Sub_17           rain_garden         25       85.00        0.00        0.99        0.00       19.69
  Sub_17           rain_barrel         35        2.95        0.00        0.05       23.55        0.00
  Sub_18           rain_barrel         45        2.95        0.00        0.20       51.44        0.00
  Sub_19           rain_garden          5       85.00        0.00        0.45        0.00       24.41
  Sub_19           rain_barrel         45        2.95        0.00        0.14       36.52        0.00
  Sub_20           rain_garden         40       85.00        0.00        0.68        0.00       18.50
  Sub_20           rain_barrel         95        2.95        0.00        0.06       19.73        0.00
  Sub_21           rain_barrel         40        2.95        0.00        0.11       30.93        0.00
  Sub_24           rain_garden         30       85.00        0.00        0.99        0.00       28.65
  Sub_24           rain_barrel         80        2.95        0.00        0.09       30.99        0.00
  Sub_25           rain_barrel         40        2.95        0.00        0.08       38.98        0.00
  Sub_26           rain_garden         13       85.00        0.00        0.39        0.00       11.50
  Sub_26           rain_barrel        112        2.95        0.00        0.12       39.73        0.00
  Sub_27           rain_barrel         39        2.95        0.00        0.12       34.81        0.00
  Sub_28           rain_garden         30       85.00        0.00        0.55        0.00       22.03
  Sub_28           rain_barrel        150        2.95        0.00        0.10       27.40        0.00
  Sub_29           rain_barrel         70        2.95        0.00        0.11       28.20        0.00
  Sub_30           rain_barrel         50        2.95        0.00        0.13       35.10        0.00
  Sub_31           rain_garden         16       85.00        0.00        1.08        0.00       44.56
  Sub_31           rain_barrel         40        2.95        0.00        0.09       26.28        0.00
  Sub_32           rain_barrel        150        2.95        0.00        0.13       34.78        0.00
  Sub_33           rain_barrel         50        2.95        0.00        0.11       25.67        0.00
  Sub_34           rain_garden         16       85.00        0.00        1.37        0.00       46.11
  Sub_34           rain_barrel         30        2.95        0.00        0.09       27.51        0.00
  Sub_35           rain_garden         15       85.00        0.00        1.06        0.00       41.50
  Sub_35           rain_barrel         30        2.95        0.00        0.07       21.21        0.00
  Sub_36           rain_garden         15       85.00        0.00        2.05        0.00       47.68
  Sub_36           rain_barrel         21        2.95        0.00        0.10       40.39        0.00
  Sub_37           rain_barrel         30        2.95        0.00        0.11       28.08        0.00
  Sub_38           rain_garden         10       85.00        0.00        0.45        0.00       19.73
  Sub_38           rain_barrel         50        2.95        0.00        0.08       21.33        0.00
  Sub_39           rain_garden        100       85.00        0.00        1.63        0.00       43.97
  Sub_39           rain_barrel        120        2.95        0.00        0.07       24.39        0.00
  
  
  ************
  Node Summary
  ************
                                           Invert      Max.    Ponded    External
  Name                 Type                 Elev.     Depth      Area    Inflow  
  -------------------------------------------------------------------------------
  J1                   JUNCTION             -6.11     11.75       0.0
  J10                  JUNCTION             -6.30     10.18       0.0
  J103                 JUNCTION             -6.19     10.56       0.0
  J104                 JUNCTION             -6.22     10.06       0.0
  J11                  JUNCTION              0.00      4.57       0.0
  J118                 JUNCTION             -6.18     12.12       0.0
  J12                  JUNCTION             -1.49      6.08       0.0
  J121                 JUNCTION             -1.01      9.50       0.0
  J126                 JUNCTION              2.71      5.20       0.0
  J13                  JUNCTION             -6.14     12.38       0.0
  J14                  JUNCTION             -6.30     10.18       0.0
  J147                 JUNCTION              2.00      4.84       0.0
  J151                 JUNCTION             -6.29     10.14       0.0
  J156                 JUNCTION              2.00      6.65       0.0
  J17                  JUNCTION             -2.21      6.73       0.0
  J18                  JUNCTION             -6.29     10.21       0.0
  J2                   JUNCTION             -0.37      7.68       0.0
  J23                  JUNCTION              1.98      4.73       0.0
  J25                  JUNCTION             -0.96      9.42       0.0
  J26                  JUNCTION             -1.44      7.94       0.0
  J27                  JUNCTION             -2.16      4.90       0.0
  J3                   JUNCTION             -0.57      9.12       0.0
  J30                  JUNCTION             -6.26      9.78       0.0
  J32                  JUNCTION             -6.23     10.58       0.0
  J4                   JUNCTION             -1.20      7.63       0.0
  J43                  JUNCTION             -1.70      8.65       0.0
  J44                  JUNCTION             -6.18     12.57       0.0
  J46                  JUNCTION             -6.16     11.43       0.0
  J5                   JUNCTION             -1.09      8.97       0.0
  J50                  JUNCTION             -6.15     11.76       0.0
  J52                  JUNCTION             -6.13     12.49       0.0
  J57                  JUNCTION             -1.59      8.82       0.0
  J6                   JUNCTION             -2.09      5.83       0.0
  J63                  JUNCTION              1.87      4.03       0.0
  J7                   JUNCTION             -0.42      6.53       0.0
  J70                  JUNCTION              2.00      7.06       0.0
  J71                  JUNCTION              1.80      7.50       0.0
  J8                   JUNCTION             -1.37      8.64       0.0
  J89                  JUNCTION             -1.00      6.26       0.0
  J9                   JUNCTION             -2.20      4.44       0.0
  J96                  JUNCTION             -1.97      5.15       0.0
  outfall              OUTFALL              -6.30     10.00       0.0
  J155                 STORAGE              -4.00      7.18       0.0
  
  
  ************
  Link Summary
  ************
  Name             From Node        To Node          Type            Length    %Slope Roughness
  ---------------------------------------------------------------------------------------------
  C103_1           J71              J3               CONDUIT          380.3    0.6233    0.0100
  C103_3           J3               J5               CONDUIT          261.0    0.2000    0.0100
  C103_4           J5               J57              CONDUIT          252.8    0.2000    0.0100
  C108             J70              J71              CONDUIT          121.0    0.1612    0.0100
  C110             J43              J44              CONDUIT          240.0    0.1667    0.0100
  C125_1           J57              J1               CONDUIT          257.8    0.9757    0.0100
  C125_2           J1               J52              CONDUIT          254.2    0.0100    0.0100
  C147             J7               J4               CONDUIT          393.0    0.2000    0.0100
  C147_2           J4               J57              CONDUIT          194.0    0.2000    0.0100
  C147_5           J63              J7               CONDUIT          273.4    0.8371    0.0100
  C15              J26              J17              CONDUIT          386.0    0.2000    0.0100
  C152             J23              J63              CONDUIT          346.2    0.0323    0.0100
  C152_1           J147             J23              CONDUIT           56.8    0.0317    0.0100
  C158             J17              J151             CONDUIT           40.0    0.2000    0.0100
  C159             J151             J10              CONDUIT           65.0    0.0100    0.0100
  C160             J18              J151             CONDUIT           65.0    0.0100    0.0100
  C167             J104             J32              CONDUIT           77.0    0.0100    0.0100
  C168             J155             J104             CONDUIT           15.0    6.6815    0.0100
  C174             J156             J71              CONDUIT          226.0    0.0863    0.0100
  C18_1            J52              J13              CONDUIT           24.9    0.0104    0.0100
  C18_2            J13              J50              CONDUIT          142.9    0.0104    0.0100
  C2               J50              J46              CONDUIT           71.3    0.0100    0.0100
  C26              J11              J14              CONDUIT          445.6    0.2917    0.0100
  C27              J2               J89              CONDUIT          314.9    0.2000    0.0100
  C38              J96              J32              CONDUIT          130.0    0.1938    0.0100
  C47              J25              J26              CONDUIT          241.0    0.2000    0.0100
  C57              J103             J104             CONDUIT          262.0    0.0100    0.0100
  C62              J32              J30              CONDUIT          305.9    0.0100    0.0100
  C64              J89              J12              CONDUIT          237.9    0.2039    0.0100
  C64_2            J12              J6               CONDUIT          303.5    0.2000    0.0100
  C68_1            J6               J27              CONDUIT           38.4    0.1808    0.0100
  C68_2            J27              J9               CONDUIT           19.2    0.1804    0.0100
  C69              J9               J10              CONDUIT           52.0    0.2000    0.0100
  C70_1            J10              J14              CONDUIT          279.9    0.0046    0.0100
  C70_2            J14              outfall          CONDUIT            5.5    0.0183    0.0100
  C78              J30              J18              CONDUIT          281.0    0.0100    0.0100
  C84              J118             J103             CONDUIT          163.0    0.0100    0.0100
  C85              J44              J118             CONDUIT            8.0    0.0125    0.0100
  C86              J46              J44              CONDUIT          189.0    0.0100    0.0100
  C90_1            J121             J8               CONDUIT          179.1    0.2000    0.0100
  C90_2            J8               J32              CONDUIT          429.7    0.2000    0.0100
  C96              J126             J63              CONDUIT          582.0    0.1436    0.0100
  
  
  *********************
  Cross Section Summary
  *********************
                                        Full     Full     Hyd.     Max.   No. of     Full
  Conduit          Shape               Depth     Area     Rad.    Width  Barrels     Flow
  ---------------------------------------------------------------------------------------
  C103_1           CIRCULAR             1.50     1.77     0.38     1.50        1    10.78
  C103_3           CIRCULAR             1.50     1.77     0.38     1.50        1     6.11
  C103_4           CIRCULAR             1.50     1.77     0.38     1.50        1     6.11
  C108             CIRCULAR             1.25     1.23     0.31     1.25        1     3.37
  C110             CIRCULAR             1.50     1.77     0.38     1.50        1     5.57
  C125_1           CIRCULAR             3.00     7.07     0.75     3.00        1    85.65
  C125_2           RECT_CLOSED          8.00    40.00     1.54     5.00        1    79.21
  C147             CIRCULAR             2.00     3.14     0.50     2.00        1    13.15
  C147_2           CIRCULAR             2.00     3.14     0.50     2.00        1    13.15
  C147_5           CIRCULAR             2.01     3.16     0.50     2.01        1    27.16
  C15              CIRCULAR             1.75     2.41     0.44     1.75        1     9.21
  C152             CIRCULAR             1.26     1.24     0.31     1.26        1     1.53
  C152_1           CIRCULAR             1.26     1.24     0.31     1.26        1     1.51
  C158             CIRCULAR             1.75     2.41     0.44     1.75        1     9.21
  C159             RECT_CLOSED          8.00    40.00     1.54     5.00        1    79.21
  C160             RECT_CLOSED          8.00    40.00     1.54     5.00        1    79.21
  C167             RECT_CLOSED          8.00    40.00     1.54     5.00        1    79.21
  C168             CIRCULAR             2.00     3.14     0.50     2.00        1    76.02
  C174             CIRCULAR             1.00     0.79     0.25     1.00        1     1.36
  C18_1            RECT_CLOSED          8.00    40.00     1.54     5.00        1    80.82
  C18_2            RECT_CLOSED          8.00    40.00     1.54     5.00        1    80.92
  C2               RECT_CLOSED          8.00    40.00     1.54     5.00        1    79.21
  C26              CIRCULAR             1.00     0.79     0.25     1.00        1     2.50
  C27              CIRCULAR             1.25     1.23     0.31     1.25        1     3.76
  C38              CIRCULAR             1.50     1.77     0.38     1.50        1     6.01
  C47              CIRCULAR             1.75     2.41     0.44     1.75        1     9.21
  C57              RECT_CLOSED          8.00    40.00     1.54     5.00        1    79.21
  C62              RECT_CLOSED          8.00    40.00     1.54     5.00        1    79.21
  C64              CIRCULAR             2.00     3.14     0.50     2.00        1    13.28
  C64_2            CIRCULAR             2.00     3.14     0.50     2.00        1    13.15
  C68_1            CIRCULAR             2.00     3.14     0.50     2.00        1    12.51
  C68_2            CIRCULAR             2.00     3.14     0.50     2.00        1    12.49
  C69              CIRCULAR             2.00     3.14     0.50     2.00        1    13.15
  C70_1            RECT_CLOSED         10.00    50.00     1.67     5.00        1    70.50
  C70_2            RECT_CLOSED         10.00    50.00     1.67     5.00        1   141.22
  C78              RECT_CLOSED          8.00    40.00     1.54     5.00        1    79.21
  C84              RECT_CLOSED          8.00    40.00     1.54     5.00        1    79.21
  C85              RECT_CLOSED          8.00    40.00     1.54     5.00        1    88.56
  C86              RECT_CLOSED          8.00    40.00     1.54     5.00        1    79.21
  C90_1            RECT_CLOSED          1.50     1.36     0.28     0.91        1     3.91
  C90_2            RECT_CLOSED          1.50     1.36     0.28     0.91        1     3.91
  C96              CIRCULAR             1.25     1.23     0.31     1.25        1     3.18
  
  
  ****************
  Analysis Options
  ****************
  Flow Units ............... CFS
  Process Models:
    Rainfall/Runoff ........ YES
    RDII ................... NO
    Snowmelt ............... NO
    Groundwater ............ NO
    Flow Routing ........... YES
    Ponding Allowed ........ NO
    Water Quality .......... NO
  Infiltration Method ...... GREEN_AMPT
  Flow Routing Method ...... DYNWAVE
  Surcharge Method ......... EXTRAN
  Starting Date ............ 06/01/2025 00:00:00
  Ending Date .............. 06/01/2025 23:45:00
  Antecedent Dry Days ...... 0.0
  Report Time Step ......... 00:05:00
  Wet Time Step ............ 00:05:00
  Dry Time Step ............ 00:05:00
  Routing Time Step ........ 5.00 sec
  Variable Time Step ....... YES
  Maximum Trials ........... 8
  Number of Threads ........ 2
  Head Tolerance ........... 0.005000 ft
  
  
  **************************        Volume         Depth
  Runoff Quantity Continuity     acre-feet        inches
  **************************     ---------       -------
  Initial LID Storage ......         0.185         0.014
  Total Precipitation ......        18.677         1.433
  Evaporation Loss .........         0.000         0.000
  Infiltration Loss ........        11.016         0.845
  Surface Runoff ...........         6.847         0.525
  Final Storage ............         0.988         0.076
  Continuity Error (%) .....         0.061
  
  
  **************************        Volume        Volume
  Flow Routing Continuity        acre-feet      10^6 gal
  **************************     ---------     ---------
  Dry Weather Inflow .......         0.000         0.000
  Wet Weather Inflow .......         6.847         2.231
  Groundwater Inflow .......         0.000         0.000
  RDII Inflow ..............         0.000         0.000
  External Inflow ..........         0.000         0.000
  External Outflow .........         5.077         1.654
  Flooding Loss ............         0.000         0.000
  Evaporation Loss .........         0.000         0.000
  Exfiltration Loss ........         0.000         0.000
  Initial Stored Volume ....         1.620         0.528
  Final Stored Volume ......         3.394         1.106
  Continuity Error (%) .....        -0.043
  
  
  *************************
  Highest Continuity Errors
  *************************
  Node J30 (4.00%)
  Node J1 (3.20%)
  Node J103 (3.05%)
  Node J52 (2.76%)
  Node J32 (2.54%)
  
  
  ***************************
  Time-Step Critical Elements
  ***************************
  Link C70_2 (52.94%)
  Link C85 (18.93%)
  Link C168 (13.80%)
  Link C68_2 (3.44%)
  
  
  ********************************
  Highest Flow Instability Indexes
  ********************************
  Link C85 (12)
  Link C84 (5)
  Link C159 (4)
  Link C160 (4)
  Link C86 (4)
  
  
  *********************************
  Most Frequent Nonconverging Nodes
  *********************************
  Node outfall (0.54%)
  Node J43 (0.16%)
  Node J118 (0.15%)
  Node J8 (0.15%)
  Node J44 (0.09%)
  
  
  *************************
  Routing Time Step Summary
  *************************
  Minimum Time Step           :     0.50 sec
  Average Time Step           :     1.40 sec
  Maximum Time Step           :     5.00 sec
  % of Time in Steady State   :     0.00
  Average Iterations per Step :     2.08
  % of Steps Not Converging   :     0.54
  Time Step Frequencies       :
      5.000 -  3.155 sec      :    15.30 %
      3.155 -  1.991 sec      :     8.59 %
      1.991 -  1.256 sec      :     6.97 %
      1.256 -  0.792 sec      :     4.43 %
      0.792 -  0.500 sec      :    64.71 %
  
  
  ***************************
  Subcatchment Runoff Summary
  ***************************
  
  ------------------------------------------------------------------------------------------------------------------------------
                            Total      Total      Total      Total     Imperv       Perv      Total       Total     Peak  Runoff
                           Precip      Runon       Evap      Infil     Runoff     Runoff     Runoff      Runoff   Runoff   Coeff
  Subcatchment                 in         in         in         in         in         in         in    10^6 gal      CFS
  ------------------------------------------------------------------------------------------------------------------------------
  Sub_1                      1.43       0.00       0.00       0.87       0.77       0.00       0.54        0.04     0.30   0.375
  Sub_10                     1.43       0.00       0.00       0.42       1.07       0.23       0.98        0.06     0.52   0.685
  Sub_11                     1.43       0.00       0.00       0.85       0.80       0.00       0.56        0.01     0.08   0.389
  Sub_12                     1.43       0.00       0.00       1.04       0.68       0.00       0.34        0.05     0.38   0.237
  Sub_13                     1.43       0.00       0.00       1.07       0.69       0.00       0.31        0.04     0.28   0.213
  Sub_14                     1.43       0.00       0.00       1.07       0.71       0.00       0.29        0.12     0.91   0.201
  Sub_15                     1.43       0.00       0.00       0.98       0.81       0.02       0.36        0.04     0.28   0.250
  Sub_16                     1.43       0.00       0.00       0.85       0.67       0.19       0.53        0.04     0.44   0.371
  Sub_17                     1.43       0.00       0.00       1.08       0.57       0.00       0.30        0.04     0.32   0.211
  Sub_18                     1.43       0.00       0.00       0.64       1.10       0.32       0.69        0.03     0.30   0.482
  Sub_19                     1.43       0.00       0.00       0.66       1.08       0.24       0.66        0.04     0.37   0.464
  Sub_2                      1.43       0.00       0.00       0.62       0.89       0.17       0.79        0.10     0.98   0.553
  Sub_20                     1.43       0.00       0.00       0.94       0.79       0.00       0.44        0.14     1.08   0.309
  Sub_21                     1.43       0.00       0.00       0.80       0.99       0.09       0.57        0.04     0.37   0.399
  Sub_22                     1.43       0.00       0.00       0.54       0.96       0.19       0.87        0.02     0.21   0.605
  Sub_23                     1.43       0.00       0.00       0.79       0.88       0.00       0.62        0.05     0.38   0.429
  Sub_24                     1.43       0.00       0.00       0.96       0.81       0.01       0.40        0.06     0.49   0.279
  Sub_25                     1.43       0.00       0.00       0.95       0.59       0.19       0.44        0.04     0.47   0.306
  Sub_26                     1.43       0.00       0.00       0.98       0.83       0.03       0.38        0.07     0.55   0.262
  Sub_27                     1.43       0.00       0.00       0.85       0.93       0.09       0.52        0.03     0.33   0.361
  Sub_28                     1.43       0.00       0.00       0.80       0.98       0.07       0.55        0.16     1.33   0.387
  Sub_29                     1.43       0.00       0.00       0.69       1.06       0.15       0.68        0.08     0.81   0.474
  Sub_3                      1.43       0.00       0.00       0.50       1.00       0.21       0.91        0.07     0.64   0.635
  Sub_30                     1.43       0.00       0.00       0.72       1.03       0.17       0.63        0.05     0.47   0.443
  Sub_31                     1.43       0.00       0.00       0.76       0.99       0.09       0.56        0.04     0.39   0.393
  Sub_32                     1.43       0.00       0.00       0.68       1.07       0.19       0.67        0.14     1.39   0.471
  Sub_33                     1.43       0.00       0.00       0.53       1.16       0.23       0.83        0.07     0.69   0.580
  Sub_34                     1.43       0.00       0.00       0.87       0.89       0.04       0.47        0.03     0.24   0.332
  Sub_35                     1.43       0.00       0.00       0.78       0.97       0.05       0.56        0.04     0.35   0.393
  Sub_36                     1.43       0.00       0.00       1.06       0.68       0.00       0.28        0.01     0.09   0.199
  Sub_37                     1.43       0.00       0.00       0.65       1.09       0.17       0.72        0.04     0.36   0.502
  Sub_38                     1.43       0.00       0.00       0.73       1.01       0.08       0.63        0.07     0.67   0.436
  Sub_39                     1.43       0.00       0.00       0.96       0.77       0.00       0.41        0.13     1.02   0.283
  Sub_4                      1.43       0.00       0.00       0.52       1.14       0.08       0.88        0.05     0.46   0.615
  Sub_5                      1.43       0.00       0.00       0.16       1.34       0.30       1.24        0.07     0.56   0.865
  Sub_6                      1.43       0.00       0.00       0.46       1.19       0.11       0.94        0.04     0.38   0.658
  Sub_7                      1.43       0.00       0.00       0.65       1.05       0.02       0.76        0.02     0.14   0.529
  Sub_8                      1.43       0.00       0.00       1.04       0.54       0.00       0.38        0.00     0.03   0.266
  Sub_9                      1.43       0.00       0.00       0.92       0.59       0.09       0.50        0.06     0.58   0.348
  

  ***********************
  LID Performance Summary
  ***********************

  --------------------------------------------------------------------------------------------------------------------
                                         Total      Evap     Infil   Surface    Drain    Initial     Final  Continuity
                                        Inflow      Loss      Loss   Outflow   Outflow   Storage   Storage       Error
  Subcatchment      LID Control             in        in        in        in        in        in        in           %
  --------------------------------------------------------------------------------------------------------------------
  Sub_12            rain_garden           1.43      0.00      0.00      0.00      0.00      2.40      3.83        0.00
  Sub_12            rain_barrel         194.36      0.00      0.00    160.11      0.00      0.00     34.25       -0.00
  Sub_13            rain_garden           1.43      0.00      0.00      0.00      0.00      2.40      3.83        0.00
  Sub_13            rain_barrel         194.12      0.00      0.00    159.87      0.00      0.00     34.25       -0.00
  Sub_14            rain_garden           1.43      0.00      0.00      0.00      0.00      2.40      3.83        0.00
  Sub_14            rain_barrel         194.31      0.00      0.00    160.06      0.00      0.00     34.25        0.00
  Sub_15            rain_garden           2.04      0.00      0.00      0.00      0.00      2.40      4.44        0.00
  Sub_15            rain_barrel         192.40      0.00      0.00    158.15      0.00      0.00     34.25        0.00
  Sub_16            rain_garden           5.84      0.00      0.94      0.00      0.00      2.40      7.31       -0.23
  Sub_16            rain_barrel         195.35      0.00      0.00    161.10      0.00      0.00     34.25        0.00
  Sub_17            rain_garden           1.43      0.00      0.00      0.00      0.00      2.40      3.83        0.00
  Sub_17            rain_barrel         194.64      0.00      0.00    160.39      0.00      0.00     34.25        0.00
  Sub_18            rain_barrel         196.95      0.00      0.00    162.70      0.00      0.00     34.25       -0.00
  Sub_19            rain_garden          14.53      0.00      1.72      5.77      0.00      2.40      9.47       -0.18
  Sub_19            rain_barrel         195.45      0.00      0.00    161.20      0.00      0.00     34.25        0.00
  Sub_20            rain_garden           1.43      0.00      0.00      0.00      0.00      2.40      3.83        0.00
  Sub_20            rain_barrel         195.44      0.00      0.00    161.19      0.00      0.00     34.25        0.00
  Sub_21            rain_barrel         195.90      0.00      0.00    161.65      0.00      0.00     34.25        0.00
  Sub_24            rain_garden           1.70      0.00      0.00      0.00      0.00      2.40      4.10        0.00
  Sub_24            rain_barrel         193.37      0.00      0.00    159.12      0.00      0.00     34.25       -0.00
  Sub_25            rain_barrel         199.17      0.00      0.00    164.92      0.00      0.00     34.25       -0.00
  Sub_26            rain_garden           2.24      0.00      0.00      0.00      0.00      2.40      4.64       -0.00
  Sub_26            rain_barrel         196.72      0.00      0.00    162.47      0.00      0.00     34.25       -0.00
  Sub_27            rain_barrel         197.61      0.00      0.00    163.36      0.00      0.00     34.25       -0.00
  Sub_28            rain_garden           4.25      0.00      0.58      0.00      0.00      2.40      6.08       -0.15
  Sub_28            rain_barrel         196.86      0.00      0.00    162.61      0.00      0.00     34.25       -0.00
  Sub_29            rain_barrel         196.59      0.00      0.00    162.34      0.00      0.00     34.25        0.00
  Sub_30            rain_barrel         197.25      0.00      0.00    163.00      0.00      0.00     34.25       -0.00
  Sub_31            rain_garden           5.25      0.00      0.80      0.00      0.00      2.40      6.86       -0.16
  Sub_31            rain_barrel         195.73      0.00      0.00    161.48      0.00      0.00     34.25        0.00
  Sub_32            rain_barrel         196.09      0.00      0.00    161.84      0.00      0.00     34.25       -0.00
  Sub_33            rain_barrel         196.06      0.00      0.00    161.81      0.00      0.00     34.25       -0.00
  Sub_34            rain_garden           2.78      0.00      0.35      0.00      0.00      2.40      4.83       -0.06
  Sub_34            rain_barrel         193.71      0.00      0.00    159.46      0.00      0.00     34.25       -0.00
  Sub_35            rain_garden           3.53      0.00      0.46      0.00      0.00      2.40      5.47       -0.11
  Sub_35            rain_barrel         194.84      0.00      0.00    160.59      0.00      0.00     34.25        0.00
  Sub_36            rain_garden           1.43      0.00      0.00      0.00      0.00      2.40      3.83        0.00
  Sub_36            rain_barrel         194.21      0.00      0.00    159.96      0.00      0.00     34.25       -0.00
  Sub_37            rain_barrel         196.95      0.00      0.00    162.70      0.00      0.00     34.25       -0.00
  Sub_38            rain_garden           5.14      0.00      0.77      0.00      0.00      2.40      6.78       -0.23
  Sub_38            rain_barrel         195.01      0.00      0.00    160.76      0.00      0.00     34.25        0.00
  Sub_39            rain_garden           1.43      0.00      0.00      0.00      0.00      2.40      3.83        0.00
  Sub_39            rain_barrel         192.52      0.00      0.00    158.27      0.00      0.00     34.25        0.00
  
  ******************
  Node Depth Summary
  ******************
  
  ---------------------------------------------------------------------------------
                                 Average  Maximum  Maximum  Time of Max    Reported
                                   Depth    Depth      HGL   Occurrence   Max Depth
  Node                 Type         Feet     Feet     Feet  days hr:min        Feet
  ---------------------------------------------------------------------------------
  J1                   JUNCTION     4.32     6.69     0.58     0  15:33        6.64
  J10                  JUNCTION     4.49     6.87     0.57     0  15:39        6.84
  J103                 JUNCTION     4.39     6.80     0.61     0  15:32        6.73
  J104                 JUNCTION     4.42     7.07     0.85     0  15:31        6.94
  J11                  JUNCTION     0.20     0.58     0.58     0  15:40        0.56
  J118                 JUNCTION     4.38     6.75     0.57     0  15:32        6.70
  J12                  JUNCTION     0.71     2.17     0.68     0  15:39        2.05
  J121                 JUNCTION     0.41     2.65     1.64     0  15:31        1.64
  J126                 JUNCTION     0.30     0.60     3.31     0  12:45        0.60
  J13                  JUNCTION     4.34     6.71     0.58     0  15:37        6.66
  J14                  JUNCTION     4.49     6.91     0.61     0  15:40        6.89
  J147                 JUNCTION     0.50     0.86     2.86     0  12:30        0.86
  J151                 JUNCTION     4.48     6.86     0.57     0  15:39        6.82
  J156                 JUNCTION     0.21     0.38     2.38     0  12:30        0.38
  J17                  JUNCTION     1.14     2.87     0.66     0  15:29        2.75
  J18                  JUNCTION     4.48     6.85     0.57     0  15:39        6.81
  J2                   JUNCTION     0.25     1.03     0.66     0  15:47        0.95
  J23                  JUNCTION     0.50     0.86     2.85     0  12:30        0.86
  J25                  JUNCTION     0.44     1.57     0.61     0  15:40        1.56
  J26                  JUNCTION     0.66     2.93     1.49     0  15:29        2.01
  J27                  JUNCTION     1.13     2.75     0.59     0  15:39        2.71
  J3                   JUNCTION     0.39     1.19     0.62     0  15:34        1.18
  J30                  JUNCTION     4.45     6.82     0.56     0  15:39        6.78
  J32                  JUNCTION     4.42     6.98     0.75     0  15:31        6.87
  J4                   JUNCTION     0.74     1.86     0.66     0  15:36        1.75
  J43                  JUNCTION     0.82     4.02     2.32     0  14:54        2.22
  J44                  JUNCTION     4.38     6.75     0.57     0  15:32        6.70
  J46                  JUNCTION     4.36     6.72     0.57     0  15:37        6.68
  J5                   JUNCTION     0.57     5.21     4.12     0  15:21        1.64
  J50                  JUNCTION     4.36     6.71     0.56     0  15:37        6.67
  J52                  JUNCTION     4.34     6.71     0.58     0  15:37        6.65
  J57                  JUNCTION     0.79     2.20     0.61     0  15:33        2.13
  J6                   JUNCTION     1.08     2.70     0.61     0  15:39        2.63
  J63                  JUNCTION     0.28     0.50     2.37     0  12:31        0.50
  J7                   JUNCTION     0.53     1.04     0.62     0  15:34        1.04
  J70                  JUNCTION     0.08     0.14     2.14     0  12:15        0.14
  J71                  JUNCTION     0.15     0.28     2.09     0  12:31        0.28
  J8                   JUNCTION     0.59     8.64     7.27     0  15:24        1.97
  J89                  JUNCTION     0.45     1.60     0.60     0  15:39        1.60
  J9                   JUNCTION     1.16     2.78     0.59     0  15:39        2.72
  J96                  JUNCTION     0.95     2.73     0.76     0  15:31        2.60
  outfall              OUTFALL      5.83     8.00     1.70     0  18:00        8.00
  J155                 STORAGE      2.25     2.61    -1.39     0  23:45        2.61
  
  
  *******************
  Node Inflow Summary
  *******************
  
  -------------------------------------------------------------------------------------------------
                                  Maximum  Maximum                  Lateral       Total        Flow
                                  Lateral    Total  Time of Max      Inflow      Inflow     Balance
                                   Inflow   Inflow   Occurrence      Volume      Volume       Error
  Node                 Type           CFS      CFS  days hr:min    10^6 gal    10^6 gal     Percent
  -------------------------------------------------------------------------------------------------
  J1                   JUNCTION      0.55     7.39     0  12:33      0.0657       0.861       3.309
  J10                  JUNCTION      0.03    22.50     0  11:04     0.00381        1.68       1.887
  J103                 JUNCTION      0.38    14.18     0  15:30      0.0492        1.22       3.146
  J104                 JUNCTION      0.00    49.81     0  15:31           0        1.38       2.222
  J11                  JUNCTION      0.46     0.46     0  12:15       0.052      0.0524       0.347
  J118                 JUNCTION      0.53    49.95     0  14:53      0.0543        1.18       0.695
  J12                  JUNCTION      0.90     1.48     0  12:15       0.107       0.191      -0.016
  J121                 JUNCTION      0.37     0.37     0  12:15      0.0389      0.0412      -0.079
  J126                 JUNCTION      1.39     1.39     0  12:45        0.14        0.14       0.006
  J13                  JUNCTION      1.08     8.97     0  12:32       0.139       0.992       1.491
  J14                  JUNCTION      0.00    23.49     0  11:04           0        1.64       1.584
  J147                 JUNCTION      1.02     1.02     0  12:15       0.132       0.132       0.002
  J151                 JUNCTION      0.00    19.73     0  11:04           0        1.39       0.857
  J156                 JUNCTION      0.39     0.39     0  12:30      0.0444      0.0444       0.000
  J17                  JUNCTION      0.14     1.07     0  12:15      0.0177       0.135       1.119
  J18                  JUNCTION      0.00    17.94     0  11:03           0        1.29       2.473
  J2                   JUNCTION      0.28     0.30     0  14:57      0.0363       0.039      -0.127
  J23                  JUNCTION      0.67     1.68     0  12:30      0.0741       0.206       0.007
  J25                  JUNCTION      0.56     0.56     0  12:15      0.0678      0.0703      -0.081
  J26                  JUNCTION      0.38     0.94     0  12:15      0.0432       0.117      -0.119
  J27                  JUNCTION      0.00     2.52     0  12:19           0         0.3      -0.110
  J3                   JUNCTION      0.35     1.18     0  12:31      0.0423       0.137       0.011
  J30                  JUNCTION      0.32    16.39     0  11:03      0.0407        1.31       4.168
  J32                  JUNCTION      0.44    47.09     0  15:31      0.0405        1.38       2.610
  J4                   JUNCTION      0.49     5.03     0  12:32      0.0644       0.566       0.018
  J43                  JUNCTION      1.33     1.33     0  13:00        0.16       0.161       0.388
  J44                  JUNCTION      0.00    36.44     0  14:53           0        1.15       2.163
  J46                  JUNCTION      0.37     9.37     0  12:31      0.0385       0.996       2.355
  J5                   JUNCTION      0.24     1.41     0  12:45      0.0295       0.169      -0.021
  J50                  JUNCTION      0.00     9.00     0  12:32           0       0.978       1.946
  J52                  JUNCTION      0.47     7.89     0  12:31      0.0402        0.88       2.835
  J57                  JUNCTION      0.47     6.90     0  12:32      0.0454       0.783       0.083
  J6                   JUNCTION      1.05     2.52     0  12:15       0.114       0.301       0.296
  J63                  JUNCTION      0.69     3.74     0  12:31       0.072       0.418      -0.016
  J7                   JUNCTION      0.81     4.55     0  12:31      0.0823         0.5      -0.023
  J70                  JUNCTION      0.09     0.09     0  12:15      0.0111      0.0111      -0.008
  J71                  JUNCTION      0.36     0.84     0  12:30      0.0366      0.0921      -0.080
  J8                   JUNCTION      0.30     1.10     0  15:24      0.0284      0.0723       0.714
  J89                  JUNCTION      0.30     0.81     0  15:46      0.0382      0.0835      -0.003
  J9                   JUNCTION      0.58     3.68     0  14:45      0.0611       0.361       0.073
  J96                  JUNCTION      0.28     0.28     0  13:00      0.0358      0.0371       0.833
  outfall              OUTFALL       0.64    24.37     0  11:04       0.069        1.65       0.000
  J155                 STORAGE       0.91     4.95     0  15:33       0.117       0.792      -0.002
  
  
  **********************
  Node Surcharge Summary
  **********************
  
  Surcharging occurs when water rises above the top of the highest conduit.
  ---------------------------------------------------------------------
                                               Max. Height   Min. Depth
                                   Hours       Above Crown    Below Rim
  Node                 Type      Surcharged           Feet         Feet
  ---------------------------------------------------------------------
  J12                  JUNCTION        0.22          0.165        3.914
  J121                 JUNCTION        0.40          1.146        6.850
  J17                  JUNCTION        7.38          1.119        3.864
  J26                  JUNCTION        1.82          1.184        5.006
  J27                  JUNCTION        6.63          0.755        2.148
  J43                  JUNCTION        6.74          2.517        4.633
  J5                   JUNCTION        1.12          3.712        3.754
  J6                   JUNCTION        6.46          0.700        3.134
  J8                   JUNCTION        3.57          7.137        0.000
  J9                   JUNCTION        6.70          0.782        1.658
  J96                  JUNCTION        7.38          1.232        2.421
  
  
  *********************
  Node Flooding Summary
  *********************
  
  Flooding refers to all water that overflows a node, whether it ponds or not.
  --------------------------------------------------------------------------
                                                             Total   Maximum
                                 Maximum   Time of Max       Flood    Ponded
                        Hours       Rate    Occurrence      Volume     Depth
  Node                 Flooded       CFS   days hr:min    10^6 gal      Feet
  --------------------------------------------------------------------------
  J8                      0.01      0.67      0  15:24       0.000     0.000
  
  
  **********************
  Storage Volume Summary
  **********************
  
  ------------------------------------------------------------------------------------------------
                         Average    Avg   Evap  Exfil     Maximum    Max    Time of Max    Maximum
                          Volume   Pcnt   Pcnt   Pcnt      Volume   Pcnt     Occurrence    Outflow
  Storage Unit          1000 ft³   Full   Loss   Loss    1000 ft³   Full    days hr:min        CFS
  ------------------------------------------------------------------------------------------------
  J155                    80.072   25.4    0.0    0.0      94.311   29.9       0  23:45       6.90
  
  
  ***********************
  Outfall Loading Summary
  ***********************
  
  -----------------------------------------------------------
                         Flow       Avg       Max       Total
                         Freq      Flow      Flow      Volume
  Outfall Node           Pcnt       CFS       CFS    10^6 gal
  -----------------------------------------------------------
  outfall               88.36      7.60     24.37       1.654
  -----------------------------------------------------------
  System                88.36      7.60     24.37       1.654
  
  
  ********************
  Link Flow Summary
  ********************
  
  -----------------------------------------------------------------------------
                                 Maximum  Time of Max   Maximum    Max/    Max/
                                  |Flow|   Occurrence   |Veloc|    Full    Full
  Link                 Type          CFS  days hr:min    ft/sec    Flow   Depth
  -----------------------------------------------------------------------------
  C103_1               CONDUIT      0.83     0  12:31      2.52    0.08    0.44
  C103_3               CONDUIT      1.18     0  12:32      2.50    0.19    0.90
  C103_4               CONDUIT      1.41     0  12:46      2.51    0.23    1.00
  C108                 CONDUIT      0.09     0  12:15      0.72    0.03    0.17
  C110                 CONDUIT      1.33     0  13:00      2.49    0.24    1.00
  C125_1               CONDUIT      6.90     0  12:33      5.65    0.08    0.87
  C125_2               CONDUIT      7.44     0  12:31      0.61    0.09    0.83
  C147                 CONDUIT      4.55     0  12:32      3.84    0.35    0.70
  C147_2               CONDUIT      5.03     0  12:32      5.25    0.38    0.97
  C147_5               CONDUIT      3.74     0  12:31      4.15    0.14    0.33
  C15                  CONDUIT      0.94     0  12:15      2.15    0.10    1.00
  C152                 CONDUIT      1.67     0  12:30      2.43    1.09    0.54
  C152_1               CONDUIT      1.02     0  12:15      1.18    0.67    0.69
  C158                 CONDUIT      1.28     0  11:04      2.53    0.14    1.00
  C159                 CONDUIT     20.09     0  11:04      0.80    0.25    0.86
  C160                 CONDUIT     18.68     0  11:04      0.75    0.24    0.86
  C167                 CONDUIT     46.51     0  15:26      1.39    0.59    0.85
  C168                 CONDUIT      6.90     0  15:31      4.75    0.09    0.56
  C174                 CONDUIT      0.39     0  12:31      1.72    0.29    0.33
  C18_1                CONDUIT      7.91     0  12:32      0.55    0.10    0.84
  C18_2                CONDUIT      9.00     0  12:32      0.62    0.11    0.84
  C2                   CONDUIT      9.01     0  12:31      0.54    0.11    0.84
  C26                  CONDUIT      0.46     0  12:16      2.47    0.18    0.79
  C27                  CONDUIT      0.48     0  15:48      1.54    0.13    0.91
  C38                  CONDUIT      0.37     0  11:04      1.73    0.06    1.00
  C47                  CONDUIT      0.56     0  12:15      1.75    0.06    0.95
  C57                  CONDUIT     13.43     0  11:03      0.54    0.17    0.86
  C62                  CONDUIT     16.27     0  15:26      0.65    0.21    0.86
  C64                  CONDUIT      0.88     0  15:48      1.45    0.07    0.90
  C64_2                CONDUIT      1.48     0  12:15      2.06    0.11    1.00
  C68_1                CONDUIT      2.52     0  12:19      2.66    0.20    1.00
  C68_2                CONDUIT      3.50     0  14:45      2.62    0.28    1.00
  C69                  CONDUIT      3.05     0  12:30      3.20    0.23    1.00
  C70_1                CONDUIT     23.17     0  11:04      0.93    0.33    0.69
  C70_2                CONDUIT     23.98     0  11:04      0.96    0.17    0.73
  C78                  CONDUIT     17.94     0  11:03      0.72    0.23    0.85
  C84                  CONDUIT     12.01     0  11:02      0.49    0.15    0.84
  C85                  CONDUIT     49.52     0  14:53      1.58    0.56    0.84
  C86                  CONDUIT      9.80     0  11:02      0.46    0.12    0.84
  C90_1                CONDUIT      0.73     0  15:24      1.49    0.19    1.00
  C90_2                CONDUIT      0.79     0  14:58      1.77    0.20    1.00
  C96                  CONDUIT      1.39     0  12:45      2.67    0.44    0.44
  
  
  ***************************
  Flow Classification Summary
  ***************************
  
  -------------------------------------------------------------------------------------
                      Adjusted    ---------- Fraction of Time in Flow Class ---------- 
                       /Actual         Up    Down  Sub   Sup   Up    Down  Norm  Inlet 
  Conduit               Length    Dry  Dry   Dry   Crit  Crit  Crit  Crit  Ltd   Ctrl  
  -------------------------------------------------------------------------------------
  C103_1                  1.00   0.26  0.00  0.00  0.74  0.00  0.00  0.00  0.74  0.00
  C103_3                  1.00   0.26  0.00  0.00  0.74  0.00  0.00  0.00  0.44  0.00
  C103_4                  1.00   0.25  0.00  0.00  0.74  0.00  0.00  0.00  0.33  0.00
  C108                    1.00   0.26  0.00  0.00  0.74  0.00  0.00  0.00  0.74  0.00
  C110                    1.00   0.26  0.00  0.00  0.54  0.00  0.00  0.20  0.08  0.00
  C125_1                  1.00   0.25  0.00  0.00  0.57  0.01  0.00  0.17  0.14  0.00
  C125_2                  1.00   0.25  0.00  0.00  0.75  0.00  0.00  0.00  0.00  0.00
  C147                    1.00   0.25  0.00  0.00  0.74  0.00  0.00  0.00  0.38  0.00
  C147_2                  1.00   0.25  0.00  0.00  0.53  0.21  0.00  0.00  0.05  0.00
  C147_5                  1.00   0.25  0.00  0.00  0.49  0.26  0.00  0.00  0.74  0.00
  C15                     1.00   0.25  0.00  0.00  0.75  0.00  0.00  0.00  0.32  0.00
  C152                    1.00   0.25  0.00  0.00  0.75  0.00  0.00  0.00  0.00  0.00
  C152_1                  1.00   0.25  0.00  0.00  0.74  0.00  0.00  0.00  0.03  0.00
  C158                    1.00   0.26  0.00  0.00  0.55  0.00  0.00  0.20  0.00  0.00
  C159                    1.00   0.26  0.01  0.00  0.74  0.00  0.00  0.00  0.01  0.00
  C160                    1.00   0.26  0.02  0.00  0.71  0.00  0.00  0.00  0.00  0.00
  C167                    1.00   0.26  0.03  0.00  0.71  0.00  0.00  0.00  0.01  0.00
  C168                    1.00   0.63  0.11  0.00  0.00  0.00  0.26  0.00  0.00  0.00
  C174                    1.00   0.26  0.00  0.00  0.74  0.00  0.00  0.00  0.00  0.00
  C18_1                   1.00   0.25  0.01  0.00  0.74  0.00  0.00  0.00  0.03  0.00
  C18_2                   1.00   0.25  0.00  0.00  0.75  0.00  0.00  0.00  0.00  0.00
  C2                      1.00   0.26  0.03  0.00  0.72  0.00  0.00  0.00  0.02  0.00
  C26                     1.00   0.25  0.00  0.00  0.40  0.00  0.00  0.34  0.15  0.00
  C27                     1.00   0.25  0.00  0.00  0.74  0.00  0.00  0.00  0.45  0.00
  C38                     1.00   0.25  0.00  0.00  0.55  0.00  0.00  0.20  0.00  0.00
  C47                     1.00   0.25  0.00  0.00  0.75  0.00  0.00  0.00  0.39  0.00
  C57                     1.00   0.26  0.00  0.00  0.74  0.00  0.00  0.00  0.00  0.00
  C62                     1.00   0.25  0.01  0.00  0.74  0.00  0.00  0.00  0.01  0.00
  C64                     1.00   0.25  0.00  0.00  0.75  0.00  0.00  0.00  0.39  0.00
  C64_2                   1.00   0.25  0.00  0.00  0.75  0.00  0.00  0.00  0.32  0.00
  C68_1                   1.00   0.25  0.00  0.00  0.75  0.00  0.00  0.00  0.01  0.00
  C68_2                   1.00   0.25  0.00  0.00  0.74  0.00  0.00  0.00  0.08  0.00
  C69                     1.00   0.25  0.00  0.00  0.55  0.00  0.00  0.20  0.00  0.00
  C70_1                   1.00   0.26  0.02  0.00  0.72  0.00  0.00  0.00  0.00  0.00
  C70_2                   1.00   0.00  0.00  0.00  1.00  0.00  0.00  0.00  0.00  0.00
  C78                     1.00   0.25  0.00  0.00  0.75  0.00  0.00  0.00  0.03  0.00
  C84                     1.00   0.25  0.00  0.00  0.75  0.00  0.00  0.00  0.00  0.00
  C85                     1.00   0.25  0.02  0.00  0.73  0.00  0.00  0.00  0.00  0.00
  C86                     1.00   0.26  0.00  0.00  0.74  0.00  0.00  0.00  0.04  0.00
  C90_1                   1.00   0.25  0.00  0.00  0.75  0.00  0.00  0.00  0.33  0.00
  C90_2                   1.00   0.26  0.00  0.00  0.55  0.00  0.00  0.19  0.13  0.00
  C96                     1.00   0.25  0.00  0.00  0.74  0.00  0.00  0.00  0.44  0.00
  
  
  *************************
  Conduit Surcharge Summary
  *************************
  
  ----------------------------------------------------------------------------
                                                           Hours        Hours 
                         --------- Hours Full --------   Above Full   Capacity
  Conduit                Both Ends  Upstream  Dnstream   Normal Flow   Limited
  ----------------------------------------------------------------------------
  C103_3                      0.01      0.01      1.12      0.01         0.01
  C103_4                      1.12      1.12      6.46      0.01         0.01
  C110                        6.74      6.74      7.76      0.01         0.01
  C125_1                      0.01      0.01      9.27      0.01         0.01
  C147_2                      0.01      0.01      1.18      0.01         0.01
  C15                         1.82      1.82      7.38      0.01         0.01
  C152                        0.01      0.01      0.01      1.23         0.01
  C158                        7.38      7.38      7.57      0.01         0.01
  C26                         0.01      0.01      6.97      0.01         0.01
  C27                         0.01      0.01      2.31      0.01         0.01
  C38                         7.38      7.38      8.06      0.01         0.01
  C47                         0.01      0.01      1.82      0.01         0.01
  C64                         0.01      0.01      0.22      0.01         0.01
  C64_2                       0.22      0.22      6.46      0.01         0.01
  C68_1                       6.46      6.46      6.62      0.01         0.01
  C68_2                       6.62      6.62      6.70      0.01         0.02
  C69                         6.70      6.70      6.96      0.01         0.01
  C90_1                       0.40      0.40      3.57      0.01         0.01
  C90_2                       3.57      3.57      8.08      0.01         0.01
  

  Analysis begun on:  Mon Jun  9 20:36:07 2025
  Analysis ended on:  Mon Jun  9 20:36:09 2025
  Total elapsed time: 00:00:02