
  EPA STORM WATER MANAGEMENT MODEL - VERSION 5.2 (Build 5.2.4)
  PYSWMM TOOLKIT API - VERSION v1.0 (2024-04-17)
  ------------------------------------------------------------

  WARNING 04: minimum elevation drop used for Conduit C70_2
  WARNING 04: minimum elevation drop used for Conduit C85
  
  *************
  Element Count
  *************
  Number of rain gages ...... 1
  Number of subcatchments ... 39
  Number of nodes ........... 43
  Number of links ........... 42
  Number of pollutants ...... 0
  Number of land uses ....... 0
  
  
  ****************
  Raingage Summary
  ****************
                                                      Data       Recording
  Name                 Data Source                    Type       Interval 
  ------------------------------------------------------------------------
  rain_gage            rain_gage_timeseries           INTENSITY   15 min.
  
  
  ********************
  Subcatchment Summary
  ********************
  Name                       Area     Width   %Imperv    %Slope Rain Gage            Outlet              
  -----------------------------------------------------------------------------------------------------------
  Sub_1                      2.62    272.79     55.00    3.9580 rain_gage            J89                 
  Sub_10                     2.19    296.41     77.00    2.4860 rain_gage            J12                 
  Sub_11                     0.67    130.53     57.00    5.0240 rain_gage            J6                  
  Sub_12                     5.31    283.97     49.00    3.4940 rain_gage            J12                 
  Sub_13                     4.38    341.66     50.00    2.9930 rain_gage            J2                  
  Sub_14                    14.91    412.40     52.00    3.9710 rain_gage            J155                
  Sub_15                     3.68    325.75     59.00    4.8800 rain_gage            J96                 
  Sub_16                     2.81    372.64     48.00    3.5770 rain_gage            J32                 
  Sub_17                     4.94    458.98     41.00    4.7410 rain_gage            J30                 
  Sub_18                     1.52    250.00     79.00    2.3090 rain_gage            J8                  
  Sub_19                     2.15    372.00     78.00    3.4760 rain_gage            J121                
  Sub_2                      4.81    406.94     64.00    3.8880 rain_gage            J6                  
  Sub_20                    11.54    261.37     57.00    3.9380 rain_gage            J13                 
  Sub_21                     2.48    159.75     71.00    3.2870 rain_gage            J46                 
  Sub_22                     0.94    200.00     69.00    3.2890 rain_gage            J118                
  Sub_23                     2.95    250.00     63.00    3.6520 rain_gage            J103                
  Sub_24                     5.93    412.94     59.00    3.2030 rain_gage            J4                  
  Sub_25                     3.38    300.00     42.00    3.1260 rain_gage            J52                 
  Sub_26                     6.44    408.85     60.00    3.6440 rain_gage            J1                  
  Sub_27                     2.29    250.00     67.00    3.4680 rain_gage            J118                
  Sub_28                    10.61    229.01     71.00    3.1810 rain_gage            J43                 
  Sub_29                     4.46    300.00     76.00    3.1960 rain_gage            J7                  
  Sub_3                      2.79    466.00     72.00    3.7700 rain_gage            outfall             
  Sub_30                     2.64    390.64     74.00    3.0810 rain_gage            J57                 
  Sub_31                     2.90    292.33     72.00    2.7780 rain_gage            J156                
  Sub_32                     7.63    310.58     77.00    2.8180 rain_gage            J126                
  Sub_33                     3.19    461.41     83.00    3.0790 rain_gage            J63                 
  Sub_34                     2.29    250.00     65.00    2.6240 rain_gage            J5                  
  Sub_35                     2.76    217.64     70.00    2.8170 rain_gage            J3                  
  Sub_36                     1.43    235.88     50.00    2.2300 rain_gage            J70                 
  Sub_37                     1.87    251.70     78.00    3.2300 rain_gage            J71                 
  Sub_38                     4.37    354.85     73.00    3.2410 rain_gage            J23                 
  Sub_39                    11.94    244.72     56.00    2.9530 rain_gage            J147                
  Sub_4                      2.18    358.74     82.00    3.9740 rain_gage            J11                 
  Sub_5                      2.02    268.69     96.00    3.0480 rain_gage            J25                 
  Sub_6                      1.69    314.60     85.00    3.7140 rain_gage            J26                 
  Sub_7                      0.86    147.58     75.00    3.3650 rain_gage            J17                 
  Sub_8                      0.37     73.53     39.00    3.1440 rain_gage            J10                 
  Sub_9                      4.52    345.46     42.00    3.8900 rain_gage            J9                  


  *******************
  LID Control Summary
  *******************
                                   No. of        Unit        Unit      % Area    % Imperv      % Perv
  Subcatchment     LID Control      Units        Area       Width     Covered     Treated     Treated
  ---------------------------------------------------------------------------------------------------
  Sub_1            rain_garden          1      100.00        0.00        0.09        0.00        0.00
  Sub_2            rain_barrel          1       50.00        0.00        0.02        0.00        0.00
  
  
  ************
  Node Summary
  ************
                                           Invert      Max.    Ponded    External
  Name                 Type                 Elev.     Depth      Area    Inflow  
  -------------------------------------------------------------------------------
  J1                   JUNCTION             -6.11     11.75       0.0
  J10                  JUNCTION             -6.30     10.18       0.0
  J103                 JUNCTION             -6.19     10.56       0.0
  J104                 JUNCTION             -6.22     10.06       0.0
  J11                  JUNCTION              0.00      4.57       0.0
  J118                 JUNCTION             -6.18     12.12       0.0
  J12                  JUNCTION             -1.49      6.08       0.0
  J121                 JUNCTION             -1.01      9.50       0.0
  J126                 JUNCTION              2.71      5.20       0.0
  J13                  JUNCTION             -6.14     12.38       0.0
  J14                  JUNCTION             -6.30     10.18       0.0
  J147                 JUNCTION              2.00      4.84       0.0
  J151                 JUNCTION             -6.29     10.14       0.0
  J156                 JUNCTION              2.00      6.65       0.0
  J17                  JUNCTION             -2.21      6.73       0.0
  J18                  JUNCTION             -6.29     10.21       0.0
  J2                   JUNCTION             -0.37      7.68       0.0
  J23                  JUNCTION              1.98      4.73       0.0
  J25                  JUNCTION             -0.96      9.42       0.0
  J26                  JUNCTION             -1.44      7.94       0.0
  J27                  JUNCTION             -2.16      4.90       0.0
  J3                   JUNCTION             -0.57      9.12       0.0
  J30                  JUNCTION             -6.26      9.78       0.0
  J32                  JUNCTION             -6.23     10.58       0.0
  J4                   JUNCTION             -1.20      7.63       0.0
  J43                  JUNCTION             -1.70      8.65       0.0
  J44                  JUNCTION             -6.18     12.57       0.0
  J46                  JUNCTION             -6.16     11.43       0.0
  J5                   JUNCTION             -1.09      8.97       0.0
  J50                  JUNCTION             -6.15     11.76       0.0
  J52                  JUNCTION             -6.13     12.49       0.0
  J57                  JUNCTION             -1.59      8.82       0.0
  J6                   JUNCTION             -2.09      5.83       0.0
  J63                  JUNCTION              1.87      4.03       0.0
  J7                   JUNCTION             -0.42      6.53       0.0
  J70                  JUNCTION              2.00      7.06       0.0
  J71                  JUNCTION              1.80      7.50       0.0
  J8                   JUNCTION             -1.37      8.64       0.0
  J89                  JUNCTION             -1.00      6.26       0.0
  J9                   JUNCTION             -2.20      4.44       0.0
  J96                  JUNCTION             -1.97      5.15       0.0
  outfall              OUTFALL              -6.30     10.00       0.0
  J155                 STORAGE              -4.00      7.18       0.0
  
  
  ************
  Link Summary
  ************
  Name             From Node        To Node          Type            Length    %Slope Roughness
  ---------------------------------------------------------------------------------------------
  C103_1           J71              J3               CONDUIT          380.3    0.6233    0.0100
  C103_3           J3               J5               CONDUIT          261.0    0.2000    0.0100
  C103_4           J5               J57              CONDUIT          252.8    0.2000    0.0100
  C108             J70              J71              CONDUIT          121.0    0.1612    0.0100
  C110             J43              J44              CONDUIT          240.0    0.1667    0.0100
  C125_1           J57              J1               CONDUIT          257.8    0.9757    0.0100
  C125_2           J1               J52              CONDUIT          254.2    0.0100    0.0100
  C147             J7               J4               CONDUIT          393.0    0.2000    0.0100
  C147_2           J4               J57              CONDUIT          194.0    0.2000    0.0100
  C147_5           J63              J7               CONDUIT          273.4    0.8371    0.0100
  C15              J26              J17              CONDUIT          386.0    0.2000    0.0100
  C152             J23              J63              CONDUIT          346.2    0.0323    0.0100
  C152_1           J147             J23              CONDUIT           56.8    0.0317    0.0100
  C158             J17              J151             CONDUIT           40.0    0.2000    0.0100
  C159             J151             J10              CONDUIT           65.0    0.0100    0.0100
  C160             J18              J151             CONDUIT           65.0    0.0100    0.0100
  C167             J104             J32              CONDUIT           77.0    0.0100    0.0100
  C168             J155             J104             CONDUIT           15.0    6.6815    0.0100
  C174             J156             J71              CONDUIT          226.0    0.0863    0.0100
  C18_1            J52              J13              CONDUIT           24.9    0.0104    0.0100
  C18_2            J13              J50              CONDUIT          142.9    0.0104    0.0100
  C2               J50              J46              CONDUIT           71.3    0.0100    0.0100
  C26              J11              J14              CONDUIT          445.6    0.2917    0.0100
  C27              J2               J89              CONDUIT          314.9    0.2000    0.0100
  C38              J96              J32              CONDUIT          130.0    0.1938    0.0100
  C47              J25              J26              CONDUIT          241.0    0.2000    0.0100
  C57              J103             J104             CONDUIT          262.0    0.0100    0.0100
  C62              J32              J30              CONDUIT          305.9    0.0100    0.0100
  C64              J89              J12              CONDUIT          237.9    0.2039    0.0100
  C64_2            J12              J6               CONDUIT          303.5    0.2000    0.0100
  C68_1            J6               J27              CONDUIT           38.4    0.1808    0.0100
  C68_2            J27              J9               CONDUIT           19.2    0.1804    0.0100
  C69              J9               J10              CONDUIT           52.0    0.2000    0.0100
  C70_1            J10              J14              CONDUIT          279.9    0.0046    0.0100
  C70_2            J14              outfall          CONDUIT            5.5    0.0183    0.0100
  C78              J30              J18              CONDUIT          281.0    0.0100    0.0100
  C84              J118             J103             CONDUIT          163.0    0.0100    0.0100
  C85              J44              J118             CONDUIT            8.0    0.0125    0.0100
  C86              J46              J44              CONDUIT          189.0    0.0100    0.0100
  C90_1            J121             J8               CONDUIT          179.1    0.2000    0.0100
  C90_2            J8               J32              CONDUIT          429.7    0.2000    0.0100
  C96              J126             J63              CONDUIT          582.0    0.1436    0.0100
  
  
  *********************
  Cross Section Summary
  *********************
                                        Full     Full     Hyd.     Max.   No. of     Full
  Conduit          Shape               Depth     Area     Rad.    Width  Barrels     Flow
  ---------------------------------------------------------------------------------------
  C103_1           CIRCULAR             1.50     1.77     0.38     1.50        1    10.78
  C103_3           CIRCULAR             1.50     1.77     0.38     1.50        1     6.11
  C103_4           CIRCULAR             1.50     1.77     0.38     1.50        1     6.11
  C108             CIRCULAR             1.25     1.23     0.31     1.25        1     3.37
  C110             CIRCULAR             1.50     1.77     0.38     1.50        1     5.57
  C125_1           CIRCULAR             3.00     7.07     0.75     3.00        1    85.65
  C125_2           RECT_CLOSED          8.00    40.00     1.54     5.00        1    79.21
  C147             CIRCULAR             2.00     3.14     0.50     2.00        1    13.15
  C147_2           CIRCULAR             2.00     3.14     0.50     2.00        1    13.15
  C147_5           CIRCULAR             2.01     3.16     0.50     2.01        1    27.16
  C15              CIRCULAR             1.75     2.41     0.44     1.75        1     9.21
  C152             CIRCULAR             1.26     1.24     0.31     1.26        1     1.53
  C152_1           CIRCULAR             1.26     1.24     0.31     1.26        1     1.51
  C158             CIRCULAR             1.75     2.41     0.44     1.75        1     9.21
  C159             RECT_CLOSED          8.00    40.00     1.54     5.00        1    79.21
  C160             RECT_CLOSED          8.00    40.00     1.54     5.00        1    79.21
  C167             RECT_CLOSED          8.00    40.00     1.54     5.00        1    79.21
  C168             CIRCULAR             2.00     3.14     0.50     2.00        1    76.02
  C174             CIRCULAR             1.00     0.79     0.25     1.00        1     1.36
  C18_1            RECT_CLOSED          8.00    40.00     1.54     5.00        1    80.82
  C18_2            RECT_CLOSED          8.00    40.00     1.54     5.00        1    80.92
  C2               RECT_CLOSED          8.00    40.00     1.54     5.00        1    79.21
  C26              CIRCULAR             1.00     0.79     0.25     1.00        1     2.50
  C27              CIRCULAR             1.25     1.23     0.31     1.25        1     3.76
  C38              CIRCULAR             1.50     1.77     0.38     1.50        1     6.01
  C47              CIRCULAR             1.75     2.41     0.44     1.75        1     9.21
  C57              RECT_CLOSED          8.00    40.00     1.54     5.00        1    79.21
  C62              RECT_CLOSED          8.00    40.00     1.54     5.00        1    79.21
  C64              CIRCULAR             2.00     3.14     0.50     2.00        1    13.28
  C64_2            CIRCULAR             2.00     3.14     0.50     2.00        1    13.15
  C68_1            CIRCULAR             2.00     3.14     0.50     2.00        1    12.51
  C68_2            CIRCULAR             2.00     3.14     0.50     2.00        1    12.49
  C69              CIRCULAR             2.00     3.14     0.50     2.00        1    13.15
  C70_1            RECT_CLOSED         10.00    50.00     1.67     5.00        1    70.50
  C70_2            RECT_CLOSED         10.00    50.00     1.67     5.00        1   141.22
  C78              RECT_CLOSED          8.00    40.00     1.54     5.00        1    79.21
  C84              RECT_CLOSED          8.00    40.00     1.54     5.00        1    79.21
  C85              RECT_CLOSED          8.00    40.00     1.54     5.00        1    88.56
  C86              RECT_CLOSED          8.00    40.00     1.54     5.00        1    79.21
  C90_1            RECT_CLOSED          1.50     1.36     0.28     0.91        1     3.91
  C90_2            RECT_CLOSED          1.50     1.36     0.28     0.91        1     3.91
  C96              CIRCULAR             1.25     1.23     0.31     1.25        1     3.18
  
  
  ****************
  Analysis Options
  ****************
  Flow Units ............... CFS
  Process Models:
    Rainfall/Runoff ........ YES
    RDII ................... NO
    Snowmelt ............... NO
    Groundwater ............ NO
    Flow Routing ........... YES
    Ponding Allowed ........ NO
    Water Quality .......... NO
  Infiltration Method ...... HORTON
  Flow Routing Method ...... DYNWAVE
  Surcharge Method ......... EXTRAN
  Starting Date ............ 06/01/2025 00:00:00
  Ending Date .............. 06/01/2025 23:45:00
  Antecedent Dry Days ...... 0.0
  Report Time Step ......... 00:01:00
  Wet Time Step ............ 00:05:00
  Dry Time Step ............ 00:05:00
  Routing Time Step ........ 5.00 sec
  Variable Time Step ....... YES
  Maximum Trials ........... 8
  Number of Threads ........ 2
  Head Tolerance ........... 0.005000 ft
  
  
  **************************        Volume         Depth
  Runoff Quantity Continuity     acre-feet        inches
  **************************     ---------       -------
  Initial LID Storage ......         0.001         0.000
  Total Precipitation ......        13.909         1.067
  Evaporation Loss .........         0.000         0.000
  Infiltration Loss ........         1.919         0.147
  Surface Runoff ...........        11.744         0.901
  Final Storage ............         0.307         0.024
  Continuity Error (%) .....        -0.433
  
  
  **************************        Volume        Volume
  Flow Routing Continuity        acre-feet      10^6 gal
  **************************     ---------     ---------
  Dry Weather Inflow .......         0.000         0.000
  Wet Weather Inflow .......        11.742         3.826
  Groundwater Inflow .......         0.000         0.000
  RDII Inflow ..............         0.000         0.000
  External Inflow ..........         0.000         0.000
  External Outflow .........         7.340         2.392
  Flooding Loss ............         0.637         0.208
  Evaporation Loss .........         0.000         0.000
  Exfiltration Loss ........         0.000         0.000
  Initial Stored Volume ....         1.621         0.528
  Final Stored Volume ......         5.388         1.756
  Continuity Error (%) .....        -0.014
  
  
  *************************
  Highest Continuity Errors
  *************************
  Node J8 (4.70%)
  Node J26 (4.37%)
  Node J30 (3.76%)
  Node J17 (3.15%)
  Node J1 (2.74%)
  
  
  ***************************
  Time-Step Critical Elements
  ***************************
  Link C70_2 (40.05%)
  Link C168 (37.70%)
  Link C85 (5.81%)
  
  
  ********************************
  Highest Flow Instability Indexes
  ********************************
  Link C85 (33)
  Link C68_2 (21)
  Link C68_1 (20)
  Link C158 (17)
  Link C69 (17)
  
  
  *********************************
  Most Frequent Nonconverging Nodes
  *********************************
  Node outfall (2.61%)
  Node J6 (0.54%)
  Node J27 (0.52%)
  Node J3 (0.50%)
  Node J5 (0.49%)
  
  
  *************************
  Routing Time Step Summary
  *************************
  Minimum Time Step           :     0.43 sec
  Average Time Step           :     2.13 sec
  Maximum Time Step           :     5.00 sec
  % of Time in Steady State   :     0.00
  Average Iterations per Step :     2.74
  % of Steps Not Converging   :     2.61
  Time Step Frequencies       :
      5.000 -  3.155 sec      :    38.52 %
      3.155 -  1.991 sec      :     7.46 %
      1.991 -  1.256 sec      :     7.73 %
      1.256 -  0.792 sec      :     1.32 %
      0.792 -  0.500 sec      :    44.97 %
  
  
  ***************************
  Subcatchment Runoff Summary
  ***************************
  
  ------------------------------------------------------------------------------------------------------------------------------
                            Total      Total      Total      Total     Imperv       Perv      Total       Total     Peak  Runoff
                           Precip      Runon       Evap      Infil     Runoff     Runoff     Runoff      Runoff   Runoff   Coeff
  Subcatchment                 in         in         in         in         in         in         in    10^6 gal      CFS
  ------------------------------------------------------------------------------------------------------------------------------
  Sub_1                      1.07       0.00       0.00       0.16       0.57       0.33       0.89        0.06     3.29   0.839
  Sub_10                     1.07       0.00       0.00       0.07       0.80       0.17       0.97        0.06     2.87   0.909
  Sub_11                     1.07       0.00       0.00       0.14       0.59       0.32       0.92        0.02     0.86   0.858
  Sub_12                     1.07       0.00       0.00       0.20       0.51       0.34       0.85        0.12     6.05   0.796
  Sub_13                     1.07       0.00       0.00       0.19       0.52       0.35       0.86        0.10     5.23   0.810
  Sub_14                     1.07       0.00       0.00       0.21       0.54       0.30       0.84        0.34    15.69   0.784
  Sub_15                     1.07       0.00       0.00       0.14       0.61       0.30       0.91        0.09     4.67   0.852
  Sub_16                     1.07       0.00       0.00       0.18       0.50       0.38       0.88        0.07     3.51   0.820
  Sub_17                     1.07       0.00       0.00       0.21       0.43       0.42       0.84        0.11     5.94   0.790
  Sub_18                     1.07       0.00       0.00       0.07       0.82       0.16       0.98        0.04     2.00   0.916
  Sub_19                     1.07       0.00       0.00       0.07       0.81       0.17       0.98        0.06     2.83   0.915
  Sub_2                      1.07       0.00       0.00       0.12       0.66       0.26       0.92        0.12     6.13   0.865
  Sub_20                     1.07       0.00       0.00       0.20       0.59       0.26       0.85        0.27    12.28   0.799
  Sub_21                     1.07       0.00       0.00       0.10       0.73       0.21       0.94        0.06     3.18   0.883
  Sub_22                     1.07       0.00       0.00       0.10       0.72       0.23       0.95        0.02     1.23   0.891
  Sub_23                     1.07       0.00       0.00       0.13       0.65       0.27       0.92        0.07     3.75   0.862
  Sub_24                     1.07       0.00       0.00       0.15       0.61       0.29       0.90        0.14     7.32   0.842
  Sub_25                     1.07       0.00       0.00       0.22       0.44       0.40       0.84        0.08     3.95   0.785
  Sub_26                     1.07       0.00       0.00       0.15       0.62       0.28       0.90        0.16     7.96   0.845
  Sub_27                     1.07       0.00       0.00       0.11       0.69       0.24       0.94        0.06     2.97   0.878
  Sub_28                     1.07       0.00       0.00       0.13       0.73       0.18       0.92        0.26    12.42   0.860
  Sub_29                     1.07       0.00       0.00       0.08       0.79       0.17       0.96        0.12     5.80   0.901
  Sub_3                      1.07       0.00       0.00       0.09       0.75       0.21       0.96        0.07     3.65   0.898
  Sub_30                     1.07       0.00       0.00       0.08       0.77       0.20       0.96        0.07     3.45   0.902
  Sub_31                     1.07       0.00       0.00       0.09       0.75       0.21       0.95        0.07     3.77   0.892
  Sub_32                     1.07       0.00       0.00       0.09       0.80       0.16       0.96        0.20     9.75   0.897
  Sub_33                     1.07       0.00       0.00       0.05       0.86       0.13       0.99        0.09     4.22   0.927
  Sub_34                     1.07       0.00       0.00       0.12       0.67       0.25       0.93        0.06     2.93   0.870
  Sub_35                     1.07       0.00       0.00       0.10       0.72       0.22       0.94        0.07     3.55   0.882
  Sub_36                     1.07       0.00       0.00       0.17       0.52       0.36       0.88        0.03     1.80   0.827
  Sub_37                     1.07       0.00       0.00       0.07       0.81       0.17       0.97        0.05     2.46   0.913
  Sub_38                     1.07       0.00       0.00       0.09       0.76       0.20       0.95        0.11     5.67   0.893
  Sub_39                     1.07       0.00       0.00       0.21       0.58       0.26       0.83        0.27    12.03   0.783
  Sub_4                      1.07       0.00       0.00       0.06       0.85       0.14       0.99        0.06     2.88   0.926
  Sub_5                      1.07       0.00       0.00       0.01       0.99       0.03       1.03        0.06     2.70   0.961
  Sub_6                      1.07       0.00       0.00       0.05       0.88       0.12       1.00        0.05     2.24   0.934
  Sub_7                      1.07       0.00       0.00       0.08       0.78       0.19       0.97        0.02     1.13   0.907
  Sub_8                      1.07       0.00       0.00       0.21       0.41       0.45       0.85        0.01     0.46   0.799
  Sub_9                      1.07       0.00       0.00       0.22       0.44       0.40       0.84        0.10     5.26   0.784
  

  ***********************
  LID Performance Summary
  ***********************

  --------------------------------------------------------------------------------------------------------------------
                                         Total      Evap     Infil   Surface    Drain    Initial     Final  Continuity
                                        Inflow      Loss      Loss   Outflow   Outflow   Storage   Storage       Error
  Subcatchment      LID Control             in        in        in        in        in        in        in           %
  --------------------------------------------------------------------------------------------------------------------
  Sub_1             rain_garden           1.07      0.00      3.67      0.00      0.00      6.00      3.41       -0.19
  Sub_2             rain_barrel           0.00      0.00      0.00      0.00      0.00      0.00      0.00      100.00
  
  ******************
  Node Depth Summary
  ******************
  
  ---------------------------------------------------------------------------------
                                 Average  Maximum  Maximum  Time of Max    Reported
                                   Depth    Depth      HGL   Occurrence   Max Depth
  Node                 Type         Feet     Feet     Feet  days hr:min        Feet
  ---------------------------------------------------------------------------------
  J1                   JUNCTION     5.79     8.24     2.13     0  05:58        7.96
  J10                  JUNCTION     5.94     7.56     1.26     0  06:09        7.55
  J103                 JUNCTION     5.86     7.85     1.66     0  05:57        7.84
  J104                 JUNCTION     5.88     7.78     1.56     0  05:57        7.75
  J11                  JUNCTION     0.58     4.57     4.57     0  05:54        2.71
  J118                 JUNCTION     5.85     7.93     1.75     0  05:57        7.92
  J12                  JUNCTION     1.90     6.08     4.59     0  05:54        4.63
  J121                 JUNCTION     1.45     9.50     8.49     0  05:54        3.97
  J126                 JUNCTION     0.78     5.20     7.90     0  05:47        5.20
  J13                  JUNCTION     5.81     8.11     1.98     0  05:58        7.98
  J14                  JUNCTION     5.93     7.33     1.03     0  06:06        7.30
  J147                 JUNCTION     1.00     4.84     6.84     0  05:48        4.84
  J151                 JUNCTION     5.94     7.62     1.33     0  05:58        7.57
  J156                 JUNCTION     0.63     6.65     8.65     0  05:54        6.65
  J17                  JUNCTION     2.36     6.73     4.52     0  05:53        3.52
  J18                  JUNCTION     5.93     7.65     1.37     0  06:10        7.60
  J2                   JUNCTION     1.03     7.68     7.31     0  05:54        4.88
  J23                  JUNCTION     0.98     4.73     6.71     0  05:49        4.73
  J25                  JUNCTION     1.29     9.42     8.46     0  05:55        2.53
  J26                  JUNCTION     1.71     7.94     6.50     0  05:55        3.02
  J27                  JUNCTION     2.39     4.05     1.89     0  06:12        4.04
  J3                   JUNCTION     1.42     9.12     8.56     0  05:49        6.94
  J30                  JUNCTION     5.91     7.66     1.40     0  05:58        7.64
  J32                  JUNCTION     5.88     7.75     1.52     0  05:59        7.75
  J4                   JUNCTION     1.79     7.63     6.42     0  05:49        4.99
  J43                  JUNCTION     2.10     7.73     6.03     0  05:53        4.99
  J44                  JUNCTION     5.85     7.93     1.75     0  05:57        7.93
  J46                  JUNCTION     5.83     8.05     1.89     0  05:58        7.97
  J5                   JUNCTION     1.72     8.97     7.88     0  05:49        5.88
  J50                  JUNCTION     5.83     8.07     1.92     0  05:58        7.99
  J52                  JUNCTION     5.81     8.13     1.99     0  05:58        7.98
  J57                  JUNCTION     1.91     8.82     7.22     0  05:56        4.03
  J6                   JUNCTION     2.35     5.57     3.47     0  05:53        4.22
  J63                  JUNCTION     0.57     4.03     5.90     0  05:51        4.03
  J7                   JUNCTION     1.35     6.53     6.11     0  05:48        5.79
  J70                  JUNCTION     0.47     7.06     9.06     0  05:54        5.58
  J71                  JUNCTION     0.51     7.50     9.30     0  05:54        5.72
  J8                   JUNCTION     1.75     8.64     7.27     0  05:54        4.17
  J89                  JUNCTION     1.48     6.26     5.26     0  05:55        4.34
  J9                   JUNCTION     2.40     3.95     1.76     0  06:12        3.95
  J96                  JUNCTION     2.16     5.15     3.18     0  05:53        3.61
  outfall              OUTFALL      6.94     7.28     0.98     0  06:00        7.28
  J155                 STORAGE      3.89     4.97     0.97     0  06:50        4.97
  
  
  *******************
  Node Inflow Summary
  *******************
  
  -------------------------------------------------------------------------------------------------
                                  Maximum  Maximum                  Lateral       Total        Flow
                                  Lateral    Total  Time of Max      Inflow      Inflow     Balance
                                   Inflow   Inflow   Occurrence      Volume      Volume       Error
  Node                 Type           CFS      CFS  days hr:min    10^6 gal    10^6 gal     Percent
  -------------------------------------------------------------------------------------------------
  J1                   JUNCTION      7.96    52.03     0  06:15       0.158        1.28       2.812
  J10                  JUNCTION      0.46   134.00     0  06:00     0.00852        2.43       1.698
  J103                 JUNCTION      3.75   102.46     0  05:58      0.0735        1.96       2.608
  J104                 JUNCTION      0.00   104.42     0  06:00           0        2.33       1.749
  J11                  JUNCTION      2.88     2.88     0  06:15      0.0584      0.0622       2.087
  J118                 JUNCTION      4.19    98.33     0  05:59      0.0827         1.9       0.971
  J12                  JUNCTION      8.92    17.44     0  06:15        0.18       0.373       1.426
  J121                 JUNCTION      2.83     2.83     0  06:15      0.0571      0.0595       1.049
  J126                 JUNCTION      9.75     9.75     0  06:15       0.198       0.198       0.015
  J13                  JUNCTION     12.28    72.63     0  06:12       0.267        1.57       1.250
  J14                  JUNCTION      0.00   132.97     0  06:00           0        2.38       1.464
  J147                 JUNCTION     12.03    12.03     0  06:15       0.271       0.271       0.000
  J151                 JUNCTION      0.00   106.59     0  06:00           0        1.91       0.831
  J156                 JUNCTION      3.77     3.77     0  06:15       0.075       0.075       0.017
  J17                  JUNCTION      1.13     7.54     0  05:52      0.0225       0.135       3.257
  J18                  JUNCTION      0.00    93.87     0  06:00           0        1.81       2.325
  J2                   JUNCTION      5.23     5.23     0  06:15       0.103       0.111       0.431
  J23                  JUNCTION      5.67     9.80     0  06:15       0.113       0.283      -0.000
  J25                  JUNCTION      2.70     6.13     0  05:55      0.0561      0.0634       1.994
  J26                  JUNCTION      2.24     5.22     0  05:55      0.0457       0.116       4.570
  J27                  JUNCTION      0.00    24.44     0  06:15           0         0.5      -0.427
  J3                   JUNCTION      3.55    11.09     0  06:13      0.0705       0.237       0.703
  J30                  JUNCTION      5.94    88.96     0  06:00       0.113        1.85       3.907
  J32                  JUNCTION      3.51    83.36     0  06:00      0.0668        1.79       2.724
  J4                   JUNCTION      7.32    27.23     0  05:54       0.145       0.753       0.600
  J43                  JUNCTION     12.42    12.42     0  06:15       0.264       0.264       1.200
  J44                  JUNCTION      0.00    89.63     0  05:58           0        1.84       1.401
  J46                  JUNCTION      3.18    78.35     0  05:59      0.0634         1.6       1.923
  J5                   JUNCTION      2.93    14.01     0  06:13      0.0576       0.304       0.928
  J50                  JUNCTION      0.00    72.70     0  06:12           0        1.56       1.624
  J52                  JUNCTION      3.95    59.86     0  06:12      0.0768        1.34       2.479
  J57                  JUNCTION      3.45    44.08     0  06:13      0.0689        1.13       0.857
  J6                   JUNCTION      7.00    24.44     0  06:15       0.137       0.506       0.911
  J63                  JUNCTION      4.22    17.87     0  05:50      0.0858       0.463      -0.029
  J7                   JUNCTION      5.80    21.56     0  05:54       0.116       0.592       0.281
  J70                  JUNCTION      1.80     1.80     0  06:15      0.0343      0.0343      -0.051
  J71                  JUNCTION      2.46     7.67     0  06:02      0.0495       0.157      -0.103
  J8                   JUNCTION      2.00     4.83     0  06:15      0.0402       0.103       4.930
  J89                  JUNCTION      3.29     8.52     0  06:15      0.0636       0.189       1.467
  J9                   JUNCTION      5.26    29.70     0  06:15       0.103       0.604       0.041
  J96                  JUNCTION      4.67     4.67     0  06:15      0.0909      0.0913       1.399
  outfall              OUTFALL       3.65   138.97     0  06:12      0.0727        2.39       0.000
  J155                 STORAGE      15.69    59.00     0  05:59       0.339         1.6      -0.005
  
  
  **********************
  Node Surcharge Summary
  **********************
  
  Surcharging occurs when water rises above the top of the highest conduit.
  ---------------------------------------------------------------------
                                               Max. Height   Min. Depth
                                   Hours       Above Crown    Below Rim
  Node                 Type      Surcharged           Feet         Feet
  ---------------------------------------------------------------------
  J1                   JUNCTION        0.01          0.239        3.507
  J11                  JUNCTION        0.68          3.566        0.000
  J12                  JUNCTION        3.01          4.079        0.000
  J121                 JUNCTION        3.04          7.996        0.000
  J126                 JUNCTION        0.80          3.949        0.000
  J13                  JUNCTION        0.01          0.112        4.273
  J147                 JUNCTION        1.22          3.589        0.000
  J156                 JUNCTION        0.73          5.646        0.000
  J17                  JUNCTION       17.86          4.983        0.000
  J2                   JUNCTION        1.30          6.434        0.000
  J23                  JUNCTION        1.20          3.473        0.000
  J25                  JUNCTION        1.60          7.668        0.000
  J26                  JUNCTION        3.97          6.190        0.000
  J27                  JUNCTION       17.86          2.051        0.852
  J3                   JUNCTION        1.09          7.621        0.000
  J4                   JUNCTION        1.72          5.627        0.000
  J43                  JUNCTION       17.86          6.234        0.916
  J46                  JUNCTION        0.01          0.050        3.382
  J5                   JUNCTION        3.38          7.466        0.000
  J50                  JUNCTION        0.01          0.070        3.687
  J52                  JUNCTION        0.01          0.127        4.367
  J57                  JUNCTION        0.43          5.816        0.000
  J6                   JUNCTION       17.86          3.566        0.268
  J63                  JUNCTION        0.68          2.020        0.000
  J7                   JUNCTION        0.91          4.525        0.000
  J70                  JUNCTION        0.53          5.813        0.000
  J71                  JUNCTION        0.50          5.995        0.000
  J8                   JUNCTION        5.00          7.137        0.000
  J89                  JUNCTION        0.85          4.261        0.000
  J9                   JUNCTION       17.86          1.955        0.485
  J96                  JUNCTION       17.86          3.653        0.000
  
  
  *********************
  Node Flooding Summary
  *********************
  
  Flooding refers to all water that overflows a node, whether it ponds or not.
  --------------------------------------------------------------------------
                                                             Total   Maximum
                                 Maximum   Time of Max       Flood    Ponded
                        Hours       Rate    Occurrence      Volume     Depth
  Node                 Flooded       CFS   days hr:min    10^6 gal      Feet
  --------------------------------------------------------------------------
  J11                     0.01      0.43      0  05:54       0.000     0.000
  J12                     0.01      2.26      0  05:54       0.000     0.000
  J121                    0.01      1.10      0  05:54       0.000     0.000
  J126                    0.54      4.75      0  06:14       0.044     0.000
  J147                    0.76      7.90      0  06:15       0.101     0.000
  J156                    0.30      0.53      0  06:14       0.002     0.000
  J17                     0.01      2.91      0  05:53       0.000     0.000
  J2                      0.01      0.82      0  05:54       0.000     0.000
  J23                     0.66      5.57      0  06:14       0.060     0.000
  J25                     0.01      5.05      0  05:55       0.000     0.000
  J26                     0.01      4.82      0  05:55       0.000     0.000
  J3                      0.01      1.76      0  05:49       0.000     0.000
  J4                      0.01      1.83      0  05:49       0.000     0.000
  J5                      0.01      1.01      0  05:49       0.000     0.000
  J57                     0.01      5.10      0  05:56       0.000     0.000
  J63                     0.02      2.10      0  05:51       0.000     0.000
  J7                      0.01      2.45      0  05:48       0.000     0.000
  J70                     0.01      0.87      0  05:54       0.000     0.000
  J71                     0.01      0.81      0  05:54       0.000     0.000
  J8                      0.01      0.67      0  05:54       0.000     0.000
  J89                     0.01      4.82      0  05:55       0.000     0.000
  J96                     0.01      1.31      0  05:53       0.000     0.000
  
  
  **********************
  Storage Volume Summary
  **********************
  
  ------------------------------------------------------------------------------------------------
                         Average    Avg   Evap  Exfil     Maximum    Max    Time of Max    Maximum
                          Volume   Pcnt   Pcnt   Pcnt      Volume   Pcnt     Occurrence    Outflow
  Storage Unit          1000 ft³   Full   Loss   Loss    1000 ft³   Full    days hr:min        CFS
  ------------------------------------------------------------------------------------------------
  J155                   150.243   47.7    0.0    0.0     198.874   63.1       0  06:50      15.98
  
  
  ***********************
  Outfall Loading Summary
  ***********************
  
  -----------------------------------------------------------
                         Flow       Avg       Max       Total
                         Freq      Flow      Flow      Volume
  Outfall Node           Pcnt       CFS       CFS    10^6 gal
  -----------------------------------------------------------
  outfall               61.48     24.92    138.97       2.392
  -----------------------------------------------------------
  System                61.48     24.92    138.97       2.392
  
  
  ********************
  Link Flow Summary
  ********************
  
  -----------------------------------------------------------------------------
                                 Maximum  Time of Max   Maximum    Max/    Max/
                                  |Flow|   Occurrence   |Veloc|    Full    Full
  Link                 Type          CFS  days hr:min    ft/sec    Flow   Depth
  -----------------------------------------------------------------------------
  C103_1               CONDUIT      7.67     0  06:02      4.34    0.71    1.00
  C103_3               CONDUIT     11.09     0  06:13      6.28    1.82    1.00
  C103_4               CONDUIT     14.01     0  06:13      7.93    2.29    1.00
  C108                 CONDUIT      1.80     0  06:15      1.58    0.53    1.00
  C110                 CONDUIT     12.42     0  06:15      7.03    2.23    1.00
  C125_1               CONDUIT     44.07     0  06:15     10.35    0.51    1.00
  C125_2               CONDUIT     55.99     0  06:12      2.17    0.71    1.00
  C147                 CONDUIT     21.56     0  05:54      6.86    1.64    1.00
  C147_2               CONDUIT     27.23     0  05:54      9.28    2.07    1.00
  C147_5               CONDUIT     16.88     0  05:52      5.79    0.62    1.00
  C15                  CONDUIT      4.98     0  05:55      3.72    0.54    1.00
  C152                 CONDUIT      8.89     0  05:49      7.19    5.81    1.00
  C152_1               CONDUIT      6.16     0  06:34      4.97    4.07    1.00
  C158                 CONDUIT      6.95     0  05:53      4.47    0.75    1.00
  C159                 CONDUIT    107.76     0  06:00      2.93    1.36    0.94
  C160                 CONDUIT    100.57     0  06:00      2.73    1.27    0.95
  C167                 CONDUIT     71.21     0  06:00      1.93    0.90    0.97
  C168                 CONDUIT     46.72     0  05:57     17.69    0.61    0.78
  C174                 CONDUIT      3.61     0  06:02      4.59    2.65    1.00
  C18_1                CONDUIT     61.16     0  05:59      2.05    0.76    1.00
  C18_2                CONDUIT     72.70     0  06:12      2.27    0.90    1.00
  C2                   CONDUIT     75.48     0  05:59      2.07    0.95    1.00
  C26                  CONDUIT      2.88     0  06:14      3.89    1.15    1.00
  C27                  CONDUIT      5.23     0  06:15      4.26    1.39    1.00
  C38                  CONDUIT      4.67     0  06:15      3.89    0.78    1.00
  C47                  CONDUIT      3.48     0  05:55      2.56    0.38    1.00
  C57                  CONDUIT    104.42     0  06:00      2.77    1.32    0.98
  C62                  CONDUIT     84.08     0  06:00      2.24    1.06    0.96
  C64                  CONDUIT      8.52     0  06:15      2.71    0.64    1.00
  C64_2                CONDUIT     17.44     0  06:15      5.55    1.33    1.00
  C68_1                CONDUIT     24.44     0  06:15      7.78    1.95    1.00
  C68_2                CONDUIT     24.44     0  06:15      7.78    1.96    1.00
  C69                  CONDUIT     29.70     0  06:15      9.45    2.26    1.00
  C70_1                CONDUIT    130.12     0  06:00      3.56    1.85    0.74
  C70_2                CONDUIT    135.32     0  06:12      3.72    0.96    0.73
  C78                  CONDUIT     93.87     0  06:00      2.54    1.19    0.95
  C84                  CONDUIT     99.13     0  05:58      2.63    1.25    0.99
  C85                  CONDUIT     94.38     0  05:59      2.48    1.07    0.99
  C86                  CONDUIT     79.87     0  05:58      2.06    1.01    0.99
  C90_1                CONDUIT      2.83     0  06:14      2.40    0.72    1.00
  C90_2                CONDUIT      4.83     0  06:14      3.85    1.23    1.00
  C96                  CONDUIT      6.35     0  05:52      5.17    1.99    1.00
  
  
  ***************************
  Flow Classification Summary
  ***************************
  
  -------------------------------------------------------------------------------------
                      Adjusted    ---------- Fraction of Time in Flow Class ---------- 
                       /Actual         Up    Down  Sub   Sup   Up    Down  Norm  Inlet 
  Conduit               Length    Dry  Dry   Dry   Crit  Crit  Crit  Crit  Ltd   Ctrl  
  -------------------------------------------------------------------------------------
  C103_1                  1.00   0.21  0.00  0.00  0.78  0.01  0.00  0.00  0.75  0.00
  C103_3                  1.00   0.21  0.00  0.00  0.79  0.00  0.00  0.00  0.02  0.00
  C103_4                  1.00   0.21  0.00  0.00  0.79  0.00  0.00  0.00  0.00  0.00
  C108                    1.00   0.21  0.00  0.00  0.79  0.00  0.00  0.00  0.60  0.00
  C110                    1.00   0.21  0.00  0.00  0.75  0.00  0.00  0.04  0.00  0.00
  C125_1                  1.00   0.21  0.00  0.00  0.75  0.00  0.00  0.03  0.00  0.00
  C125_2                  1.00   0.21  0.00  0.00  0.79  0.00  0.00  0.00  0.00  0.00
  C147                    1.00   0.21  0.00  0.00  0.79  0.00  0.00  0.00  0.02  0.00
  C147_2                  1.00   0.21  0.00  0.00  0.77  0.02  0.00  0.00  0.00  0.00
  C147_5                  1.00   0.21  0.00  0.00  0.77  0.02  0.00  0.00  0.75  0.00
  C15                     1.00   0.21  0.00  0.00  0.79  0.00  0.00  0.00  0.01  0.00
  C152                    1.00   0.21  0.00  0.00  0.79  0.00  0.00  0.00  0.00  0.00
  C152_1                  1.00   0.21  0.00  0.00  0.79  0.00  0.00  0.00  0.20  0.00
  C158                    1.00   0.21  0.00  0.00  0.75  0.00  0.00  0.04  0.00  0.00
  C159                    1.00   0.21  0.00  0.00  0.78  0.00  0.00  0.00  0.01  0.00
  C160                    1.00   0.22  0.01  0.00  0.78  0.00  0.00  0.00  0.00  0.00
  C167                    1.00   0.21  0.01  0.00  0.78  0.00  0.00  0.00  0.00  0.00
  C168                    1.00   0.25  0.00  0.00  0.72  0.00  0.03  0.00  0.21  0.00
  C174                    1.00   0.21  0.00  0.00  0.79  0.00  0.00  0.00  0.00  0.00
  C18_1                   1.00   0.21  0.00  0.00  0.79  0.00  0.00  0.00  0.01  0.00
  C18_2                   1.00   0.21  0.00  0.00  0.79  0.00  0.00  0.00  0.00  0.00
  C2                      1.00   0.21  0.01  0.00  0.78  0.00  0.00  0.00  0.00  0.00
  C26                     1.00   0.21  0.00  0.00  0.75  0.00  0.00  0.04  0.00  0.00
  C27                     1.00   0.21  0.00  0.00  0.79  0.00  0.00  0.00  0.01  0.00
  C38                     1.00   0.21  0.00  0.00  0.75  0.00  0.00  0.04  0.00  0.00
  C47                     1.00   0.21  0.00  0.00  0.79  0.00  0.00  0.00  0.03  0.00
  C57                     1.00   0.21  0.00  0.00  0.79  0.00  0.00  0.00  0.00  0.00
  C62                     1.00   0.21  0.00  0.00  0.79  0.00  0.00  0.00  0.00  0.00
  C64                     1.00   0.21  0.00  0.00  0.79  0.00  0.00  0.00  0.03  0.00
  C64_2                   1.00   0.21  0.00  0.00  0.79  0.00  0.00  0.00  0.03  0.00
  C68_1                   1.00   0.21  0.00  0.00  0.79  0.00  0.00  0.00  0.00  0.00
  C68_2                   1.00   0.21  0.00  0.00  0.79  0.00  0.00  0.00  0.01  0.00
  C69                     1.00   0.21  0.00  0.00  0.75  0.00  0.00  0.04  0.00  0.00
  C70_1                   1.00   0.21  0.01  0.00  0.78  0.00  0.00  0.00  0.00  0.00
  C70_2                   1.00   0.00  0.00  0.00  1.00  0.00  0.00  0.00  0.00  0.00
  C78                     1.00   0.21  0.00  0.00  0.79  0.00  0.00  0.00  0.00  0.00
  C84                     1.00   0.21  0.00  0.00  0.79  0.00  0.00  0.00  0.00  0.00
  C85                     1.00   0.21  0.01  0.00  0.78  0.00  0.00  0.00  0.00  0.00
  C86                     1.00   0.21  0.00  0.00  0.79  0.00  0.00  0.00  0.00  0.00
  C90_1                   1.00   0.21  0.00  0.00  0.79  0.00  0.00  0.00  0.01  0.00
  C90_2                   1.00   0.21  0.00  0.00  0.75  0.00  0.00  0.04  0.00  0.00
  C96                     1.00   0.21  0.00  0.00  0.79  0.00  0.00  0.00  0.22  0.00
  
  
  *************************
  Conduit Surcharge Summary
  *************************
  
  ----------------------------------------------------------------------------
                                                           Hours        Hours 
                         --------- Hours Full --------   Above Full   Capacity
  Conduit                Both Ends  Upstream  Dnstream   Normal Flow   Limited
  ----------------------------------------------------------------------------
  C103_1                      0.50      0.50      1.09      0.01         0.01
  C103_3                      1.09      1.09      3.38      0.68         0.67
  C103_4                      3.32      3.38     17.87      0.76         0.67
  C108                        0.53      0.53      0.57      0.01         0.01
  C110                       17.86     17.86     17.86      0.74         0.68
  C125_1                      0.43      0.43     17.88      0.01         0.01
  C125_2                      0.01      0.01      0.01      0.01         0.01
  C147                        0.91      0.92      1.72      0.83         0.79
  C147_2                      1.62      1.72      3.33      0.88         0.73
  C147_5                      0.68      0.68      0.91      0.01         0.01
  C15                         3.97      3.97     17.86      0.01         0.01
  C152                        0.77      1.20      0.77      1.56         0.77
  C152_1                      1.20      1.22      1.20      1.47         1.20
  C158                       17.86     17.86     17.86      0.01         0.01
  C159                        0.01      0.01      0.01      0.22         0.01
  C160                        0.01      0.01      0.01      0.12         0.01
  C168                        0.01      0.01      0.52      0.01         0.01
  C174                        0.65      0.73      0.65      0.80         0.65
  C18_1                       0.01      0.01      0.01      0.01         0.01
  C18_2                       0.01      0.01      0.01      0.01         0.01
  C2                          0.01      0.01      0.01      0.01         0.01
  C26                         0.68      0.68     17.85      0.39         0.36
  C27                         1.30      1.30      4.28      0.41         0.40
  C38                        17.86     17.86     17.87      0.01         0.01
  C47                         1.60      1.60      3.97      0.01         0.01
  C57                         0.01      0.01      0.01      0.35         0.01
  C62                         0.01      0.01      0.01      0.02         0.01
  C64                         0.85      0.85      3.01      0.01         0.01
  C64_2                       3.01      3.01     17.86      0.39         0.39
  C68_1                      17.86     17.86     17.86      0.69         1.36
  C68_2                      17.86     17.86     17.86      0.68         2.42
  C69                        17.85     17.86     17.85      0.73         0.74
  C70_1                       0.01      0.01      0.01      0.39         0.01
  C78                         0.01      0.01      0.01      0.12         0.01
  C84                         0.01      0.01      0.01      0.31         0.01
  C85                         0.01      0.01      0.01      0.03         0.01
  C86                         0.01      0.01      0.01      0.01         0.01
  C90_1                       3.04      3.04      5.00      0.01         0.01
  C90_2                       5.00      5.00     17.87      0.40         0.37
  C96                         0.77      0.80      0.77      0.86         0.77
  

  Analysis begun on:  Sat Jun  7 16:05:11 2025
  Analysis ended on:  Sat Jun  7 16:05:13 2025
  Total elapsed time: 00:00:02