
  EPA STORM WATER MANAGEMENT MODEL - VERSION 5.2 (Build 5.2.4)
  PYSWMM TOOLKIT API - VERSION v1.0 (2024-04-17)
  ------------------------------------------------------------

  WARNING 04: minimum elevation drop used for Conduit C70_2
  WARNING 04: minimum elevation drop used for Conduit C85
  
  *************
  Element Count
  *************
  Number of rain gages ...... 1
  Number of subcatchments ... 39
  Number of nodes ........... 43
  Number of links ........... 42
  Number of pollutants ...... 0
  Number of land uses ....... 0
  
  
  ****************
  Raingage Summary
  ****************
                                                      Data       Recording
  Name                 Data Source                    Type       Interval 
  ------------------------------------------------------------------------
  rain_gage            rain_gage_timeseries           INTENSITY   15 min.
  
  
  ********************
  Subcatchment Summary
  ********************
  Name                       Area     Width   %Imperv    %Slope Rain Gage            Outlet              
  -----------------------------------------------------------------------------------------------------------
  Sub_1                      2.62    272.79     55.00    3.9580 rain_gage            J89                 
  Sub_10                     2.19    296.41     77.00    2.4860 rain_gage            J12                 
  Sub_11                     0.67    130.53     57.00    5.0240 rain_gage            J6                  
  Sub_12                     5.31    283.97     49.00    3.4940 rain_gage            J12                 
  Sub_13                     4.38    341.66     50.00    2.9930 rain_gage            J2                  
  Sub_14                    14.91    412.40     52.00    3.9710 rain_gage            J155                
  Sub_15                     3.68    325.75     59.00    4.8800 rain_gage            J96                 
  Sub_16                     2.81    372.64     48.00    3.5770 rain_gage            J32                 
  Sub_17                     4.94    458.98     41.00    4.7410 rain_gage            J30                 
  Sub_18                     1.52    250.00     79.00    2.3090 rain_gage            J8                  
  Sub_19                     2.15    372.00     78.00    3.4760 rain_gage            J121                
  Sub_2                      4.81    406.94     64.00    3.8880 rain_gage            J6                  
  Sub_20                    11.54    261.37     57.00    3.9380 rain_gage            J13                 
  Sub_21                     2.48    159.75     71.00    3.2870 rain_gage            J46                 
  Sub_22                     0.94    200.00     69.00    3.2890 rain_gage            J118                
  Sub_23                     2.95    250.00     63.00    3.6520 rain_gage            J103                
  Sub_24                     5.93    412.94     59.00    3.2030 rain_gage            J4                  
  Sub_25                     3.38    300.00     42.00    3.1260 rain_gage            J52                 
  Sub_26                     6.44    408.85     60.00    3.6440 rain_gage            J1                  
  Sub_27                     2.29    250.00     67.00    3.4680 rain_gage            J118                
  Sub_28                    10.61    229.01     71.00    3.1810 rain_gage            J43                 
  Sub_29                     4.46    300.00     76.00    3.1960 rain_gage            J7                  
  Sub_3                      2.79    466.00     72.00    3.7700 rain_gage            outfall             
  Sub_30                     2.64    390.64     74.00    3.0810 rain_gage            J57                 
  Sub_31                     2.90    292.33     72.00    2.7780 rain_gage            J156                
  Sub_32                     7.63    310.58     77.00    2.8180 rain_gage            J126                
  Sub_33                     3.19    461.41     83.00    3.0790 rain_gage            J63                 
  Sub_34                     2.29    250.00     65.00    2.6240 rain_gage            J5                  
  Sub_35                     2.76    217.64     70.00    2.8170 rain_gage            J3                  
  Sub_36                     1.43    235.88     50.00    2.2300 rain_gage            J70                 
  Sub_37                     1.87    251.70     78.00    3.2300 rain_gage            J71                 
  Sub_38                     4.37    354.85     73.00    3.2410 rain_gage            J23                 
  Sub_39                    11.94    244.72     56.00    2.9530 rain_gage            J147                
  Sub_4                      2.18    358.74     82.00    3.9740 rain_gage            J11                 
  Sub_5                      2.02    268.69     96.00    3.0480 rain_gage            J25                 
  Sub_6                      1.69    314.60     85.00    3.7140 rain_gage            J26                 
  Sub_7                      0.86    147.58     75.00    3.3650 rain_gage            J17                 
  Sub_8                      0.37     73.53     39.00    3.1440 rain_gage            J10                 
  Sub_9                      4.52    345.46     42.00    3.8900 rain_gage            J9                  


  *******************
  LID Control Summary
  *******************
                                   No. of        Unit        Unit      % Area    % Imperv      % Perv
  Subcatchment     LID Control      Units        Area       Width     Covered     Treated     Treated
  ---------------------------------------------------------------------------------------------------
  Sub_13           rain_garden         25       85.00        0.00        1.11       25.99        0.00
  Sub_13           rain_barrel         70        2.95        0.00        0.11       43.30        0.00
  Sub_18           rain_garden          2       85.00        0.00        0.26        3.84        0.00
  Sub_18           rain_barrel         30        2.95        0.00        0.13       34.29        0.00
  Sub_23           rain_garden          5       85.00        0.00        0.33        6.14        0.00
  Sub_23           rain_barrel         15        2.95        0.00        0.03       10.96        0.00
  Sub_25           rain_garden          1       85.00        0.00        0.06        1.64        0.00
  Sub_25           rain_barrel         25        2.95        0.00        0.05       24.36        0.00
  Sub_30           rain_garden          5       85.00        0.00        0.37        5.90        0.00
  Sub_30           rain_barrel         25        2.95        0.00        0.06       17.55        0.00
  Sub_33           rain_garden         10       85.00        0.00        0.61        8.63        0.00
  Sub_33           rain_barrel         25        2.95        0.00        0.05       12.83        0.00
  Sub_34           rain_garden         15       85.00        0.00        1.28       23.11        0.00
  Sub_34           rain_barrel         20        2.95        0.00        0.06       18.34        0.00
  Sub_36           rain_garden         10       85.00        0.00        1.36       32.33        0.00
  Sub_36           rain_barrel         15        2.95        0.00        0.07       28.85        0.00
  Sub_37           rain_garden         15       85.00        0.00        1.56       23.60        0.00
  Sub_37           rain_barrel         25        2.95        0.00        0.09       23.40        0.00
  Sub_38           rain_garden         15       85.00        0.00        0.67       10.76        0.00
  Sub_38           rain_barrel         15        2.95        0.00        0.02        6.40        0.00
  
  
  ************
  Node Summary
  ************
                                           Invert      Max.    Ponded    External
  Name                 Type                 Elev.     Depth      Area    Inflow  
  -------------------------------------------------------------------------------
  J1                   JUNCTION             -6.11     11.75       0.0
  J10                  JUNCTION             -6.30     10.18       0.0
  J103                 JUNCTION             -6.19     10.56       0.0
  J104                 JUNCTION             -6.22     10.06       0.0
  J11                  JUNCTION              0.00      4.57       0.0
  J118                 JUNCTION             -6.18     12.12       0.0
  J12                  JUNCTION             -1.49      6.08       0.0
  J121                 JUNCTION             -1.01      9.50       0.0
  J126                 JUNCTION              2.71      5.20       0.0
  J13                  JUNCTION             -6.14     12.38       0.0
  J14                  JUNCTION             -6.30     10.18       0.0
  J147                 JUNCTION              2.00      4.84       0.0
  J151                 JUNCTION             -6.29     10.14       0.0
  J156                 JUNCTION              2.00      6.65       0.0
  J17                  JUNCTION             -2.21      6.73       0.0
  J18                  JUNCTION             -6.29     10.21       0.0
  J2                   JUNCTION             -0.37      7.68       0.0
  J23                  JUNCTION              1.98      4.73       0.0
  J25                  JUNCTION             -0.96      9.42       0.0
  J26                  JUNCTION             -1.44      7.94       0.0
  J27                  JUNCTION             -2.16      4.90       0.0
  J3                   JUNCTION             -0.57      9.12       0.0
  J30                  JUNCTION             -6.26      9.78       0.0
  J32                  JUNCTION             -6.23     10.58       0.0
  J4                   JUNCTION             -1.20      7.63       0.0
  J43                  JUNCTION             -1.70      8.65       0.0
  J44                  JUNCTION             -6.18     12.57       0.0
  J46                  JUNCTION             -6.16     11.43       0.0
  J5                   JUNCTION             -1.09      8.97       0.0
  J50                  JUNCTION             -6.15     11.76       0.0
  J52                  JUNCTION             -6.13     12.49       0.0
  J57                  JUNCTION             -1.59      8.82       0.0
  J6                   JUNCTION             -2.09      5.83       0.0
  J63                  JUNCTION              1.87      4.03       0.0
  J7                   JUNCTION             -0.42      6.53       0.0
  J70                  JUNCTION              2.00      7.06       0.0
  J71                  JUNCTION              1.80      7.50       0.0
  J8                   JUNCTION             -1.37      8.64       0.0
  J89                  JUNCTION             -1.00      6.26       0.0
  J9                   JUNCTION             -2.20      4.44       0.0
  J96                  JUNCTION             -1.97      5.15       0.0
  outfall              OUTFALL              -6.30     10.00       0.0
  J155                 STORAGE              -4.00      7.18       0.0
  
  
  ************
  Link Summary
  ************
  Name             From Node        To Node          Type            Length    %Slope Roughness
  ---------------------------------------------------------------------------------------------
  C103_1           J71              J3               CONDUIT          380.3    0.6233    0.0100
  C103_3           J3               J5               CONDUIT          261.0    0.2000    0.0100
  C103_4           J5               J57              CONDUIT          252.8    0.2000    0.0100
  C108             J70              J71              CONDUIT          121.0    0.1612    0.0100
  C110             J43              J44              CONDUIT          240.0    0.1667    0.0100
  C125_1           J57              J1               CONDUIT          257.8    0.9757    0.0100
  C125_2           J1               J52              CONDUIT          254.2    0.0100    0.0100
  C147             J7               J4               CONDUIT          393.0    0.2000    0.0100
  C147_2           J4               J57              CONDUIT          194.0    0.2000    0.0100
  C147_5           J63              J7               CONDUIT          273.4    0.8371    0.0100
  C15              J26              J17              CONDUIT          386.0    0.2000    0.0100
  C152             J23              J63              CONDUIT          346.2    0.0323    0.0100
  C152_1           J147             J23              CONDUIT           56.8    0.0317    0.0100
  C158             J17              J151             CONDUIT           40.0    0.2000    0.0100
  C159             J151             J10              CONDUIT           65.0    0.0100    0.0100
  C160             J18              J151             CONDUIT           65.0    0.0100    0.0100
  C167             J104             J32              CONDUIT           77.0    0.0100    0.0100
  C168             J155             J104             CONDUIT           15.0    6.6815    0.0100
  C174             J156             J71              CONDUIT          226.0    0.0863    0.0100
  C18_1            J52              J13              CONDUIT           24.9    0.0104    0.0100
  C18_2            J13              J50              CONDUIT          142.9    0.0104    0.0100
  C2               J50              J46              CONDUIT           71.3    0.0100    0.0100
  C26              J11              J14              CONDUIT          445.6    0.2917    0.0100
  C27              J2               J89              CONDUIT          314.9    0.2000    0.0100
  C38              J96              J32              CONDUIT          130.0    0.1938    0.0100
  C47              J25              J26              CONDUIT          241.0    0.2000    0.0100
  C57              J103             J104             CONDUIT          262.0    0.0100    0.0100
  C62              J32              J30              CONDUIT          305.9    0.0100    0.0100
  C64              J89              J12              CONDUIT          237.9    0.2039    0.0100
  C64_2            J12              J6               CONDUIT          303.5    0.2000    0.0100
  C68_1            J6               J27              CONDUIT           38.4    0.1808    0.0100
  C68_2            J27              J9               CONDUIT           19.2    0.1804    0.0100
  C69              J9               J10              CONDUIT           52.0    0.2000    0.0100
  C70_1            J10              J14              CONDUIT          279.9    0.0046    0.0100
  C70_2            J14              outfall          CONDUIT            5.5    0.0183    0.0100
  C78              J30              J18              CONDUIT          281.0    0.0100    0.0100
  C84              J118             J103             CONDUIT          163.0    0.0100    0.0100
  C85              J44              J118             CONDUIT            8.0    0.0125    0.0100
  C86              J46              J44              CONDUIT          189.0    0.0100    0.0100
  C90_1            J121             J8               CONDUIT          179.1    0.2000    0.0100
  C90_2            J8               J32              CONDUIT          429.7    0.2000    0.0100
  C96              J126             J63              CONDUIT          582.0    0.1436    0.0100
  
  
  *********************
  Cross Section Summary
  *********************
                                        Full     Full     Hyd.     Max.   No. of     Full
  Conduit          Shape               Depth     Area     Rad.    Width  Barrels     Flow
  ---------------------------------------------------------------------------------------
  C103_1           CIRCULAR             1.50     1.77     0.38     1.50        1    10.78
  C103_3           CIRCULAR             1.50     1.77     0.38     1.50        1     6.11
  C103_4           CIRCULAR             1.50     1.77     0.38     1.50        1     6.11
  C108             CIRCULAR             1.25     1.23     0.31     1.25        1     3.37
  C110             CIRCULAR             1.50     1.77     0.38     1.50        1     5.57
  C125_1           CIRCULAR             3.00     7.07     0.75     3.00        1    85.65
  C125_2           RECT_CLOSED          8.00    40.00     1.54     5.00        1    79.21
  C147             CIRCULAR             2.00     3.14     0.50     2.00        1    13.15
  C147_2           CIRCULAR             2.00     3.14     0.50     2.00        1    13.15
  C147_5           CIRCULAR             2.01     3.16     0.50     2.01        1    27.16
  C15              CIRCULAR             1.75     2.41     0.44     1.75        1     9.21
  C152             CIRCULAR             1.26     1.24     0.31     1.26        1     1.53
  C152_1           CIRCULAR             1.26     1.24     0.31     1.26        1     1.51
  C158             CIRCULAR             1.75     2.41     0.44     1.75        1     9.21
  C159             RECT_CLOSED          8.00    40.00     1.54     5.00        1    79.21
  C160             RECT_CLOSED          8.00    40.00     1.54     5.00        1    79.21
  C167             RECT_CLOSED          8.00    40.00     1.54     5.00        1    79.21
  C168             CIRCULAR             2.00     3.14     0.50     2.00        1    76.02
  C174             CIRCULAR             1.00     0.79     0.25     1.00        1     1.36
  C18_1            RECT_CLOSED          8.00    40.00     1.54     5.00        1    80.82
  C18_2            RECT_CLOSED          8.00    40.00     1.54     5.00        1    80.92
  C2               RECT_CLOSED          8.00    40.00     1.54     5.00        1    79.21
  C26              CIRCULAR             1.00     0.79     0.25     1.00        1     2.50
  C27              CIRCULAR             1.25     1.23     0.31     1.25        1     3.76
  C38              CIRCULAR             1.50     1.77     0.38     1.50        1     6.01
  C47              CIRCULAR             1.75     2.41     0.44     1.75        1     9.21
  C57              RECT_CLOSED          8.00    40.00     1.54     5.00        1    79.21
  C62              RECT_CLOSED          8.00    40.00     1.54     5.00        1    79.21
  C64              CIRCULAR             2.00     3.14     0.50     2.00        1    13.28
  C64_2            CIRCULAR             2.00     3.14     0.50     2.00        1    13.15
  C68_1            CIRCULAR             2.00     3.14     0.50     2.00        1    12.51
  C68_2            CIRCULAR             2.00     3.14     0.50     2.00        1    12.49
  C69              CIRCULAR             2.00     3.14     0.50     2.00        1    13.15
  C70_1            RECT_CLOSED         10.00    50.00     1.67     5.00        1    70.50
  C70_2            RECT_CLOSED         10.00    50.00     1.67     5.00        1   141.22
  C78              RECT_CLOSED          8.00    40.00     1.54     5.00        1    79.21
  C84              RECT_CLOSED          8.00    40.00     1.54     5.00        1    79.21
  C85              RECT_CLOSED          8.00    40.00     1.54     5.00        1    88.56
  C86              RECT_CLOSED          8.00    40.00     1.54     5.00        1    79.21
  C90_1            RECT_CLOSED          1.50     1.36     0.28     0.91        1     3.91
  C90_2            RECT_CLOSED          1.50     1.36     0.28     0.91        1     3.91
  C96              CIRCULAR             1.25     1.23     0.31     1.25        1     3.18
  
  
  ****************
  Analysis Options
  ****************
  Flow Units ............... CFS
  Process Models:
    Rainfall/Runoff ........ YES
    RDII ................... NO
    Snowmelt ............... NO
    Groundwater ............ NO
    Flow Routing ........... YES
    Ponding Allowed ........ NO
    Water Quality .......... NO
  Infiltration Method ...... GREEN_AMPT
  Flow Routing Method ...... DYNWAVE
  Surcharge Method ......... EXTRAN
  Starting Date ............ 06/01/2025 00:00:00
  Ending Date .............. 06/01/2025 23:45:00
  Antecedent Dry Days ...... 0.0
  Report Time Step ......... 00:01:00
  Wet Time Step ............ 00:05:00
  Dry Time Step ............ 00:05:00
  Routing Time Step ........ 5.00 sec
  Variable Time Step ....... YES
  Maximum Trials ........... 8
  Number of Threads ........ 2
  Head Tolerance ........... 0.005000 ft
  
  
  **************************        Volume         Depth
  Runoff Quantity Continuity     acre-feet        inches
  **************************     ---------       -------
  Initial LID Storage ......         0.030         0.002
  Total Precipitation ......        22.223         1.705
  Evaporation Loss .........         0.000         0.000
  Infiltration Loss ........         8.366         0.642
  Surface Runoff ...........        13.305         1.021
  Final Storage ............         0.582         0.045
  Continuity Error (%) .....         0.001
  
  
  **************************        Volume        Volume
  Flow Routing Continuity        acre-feet      10^6 gal
  **************************     ---------     ---------
  Dry Weather Inflow .......         0.000         0.000
  Wet Weather Inflow .......        13.305         4.336
  Groundwater Inflow .......         0.000         0.000
  RDII Inflow ..............         0.000         0.000
  External Inflow ..........         0.000         0.000
  External Outflow .........         7.479         2.437
  Flooding Loss ............         3.337         1.087
  Evaporation Loss .........         0.000         0.000
  Exfiltration Loss ........         0.000         0.000
  Initial Stored Volume ....         1.621         0.528
  Final Stored Volume ......         5.583         1.819
  Continuity Error (%) .....        -9.873
  
  
  *************************
  Highest Continuity Errors
  *************************
  Node J44 (-17.86%)
  Node J26 (3.60%)
  Node J8 (3.12%)
  Node J17 (2.26%)
  Node J30 (2.18%)
  
  
  ***************************
  Time-Step Critical Elements
  ***************************
  Link C70_2 (46.56%)
  Link C85 (41.32%)
  Link C168 (4.66%)
  Link C68_2 (1.64%)
  
  
  ********************************
  Highest Flow Instability Indexes
  ********************************
  Link C68_2 (6)
  Link C158 (6)
  Link C68_1 (5)
  Link C160 (5)
  Link C85 (4)
  
  
  *********************************
  Most Frequent Nonconverging Nodes
  *********************************
  Node outfall (3.96%)
  Node J44 (1.42%)
  Node J118 (1.37%)
  Node J13 (1.36%)
  Node J52 (1.27%)
  
  
  *************************
  Routing Time Step Summary
  *************************
  Minimum Time Step           :     0.50 sec
  Average Time Step           :     0.94 sec
  Maximum Time Step           :     5.00 sec
  % of Time in Steady State   :     0.00
  Average Iterations per Step :     2.32
  % of Steps Not Converging   :     3.96
  Time Step Frequencies       :
      5.000 -  3.155 sec      :     6.62 %
      3.155 -  1.991 sec      :     4.25 %
      1.991 -  1.256 sec      :     3.06 %
      1.256 -  0.792 sec      :     4.86 %
      0.792 -  0.500 sec      :    81.21 %
  
  
  ***************************
  Subcatchment Runoff Summary
  ***************************
  
  ------------------------------------------------------------------------------------------------------------------------------
                            Total      Total      Total      Total     Imperv       Perv      Total       Total     Peak  Runoff
                           Precip      Runon       Evap      Infil     Runoff     Runoff     Runoff      Runoff   Runoff   Coeff
  Subcatchment                 in         in         in         in         in         in         in    10^6 gal      CFS
  ------------------------------------------------------------------------------------------------------------------------------
  Sub_1                      1.70       0.00       0.00       0.77       0.92       0.00       0.92        0.07     0.25   0.537
  Sub_10                     1.70       0.00       0.00       0.37       1.28       0.02       1.31        0.08     0.31   0.766
  Sub_11                     1.70       0.00       0.00       0.73       0.95       0.00       0.95        0.02     0.07   0.557
  Sub_12                     1.70       0.00       0.00       0.87       0.82       0.00       0.82        0.12     0.45   0.478
  Sub_13                     1.70       0.00       0.00       0.90       0.82       0.00       0.64        0.08     0.35   0.376
  Sub_14                     1.70       0.00       0.00       0.82       0.86       0.00       0.86        0.35     1.35   0.507
  Sub_15                     1.70       0.00       0.00       0.70       0.98       0.00       0.98        0.10     0.38   0.576
  Sub_16                     1.70       0.00       0.00       0.83       0.80       0.05       0.85        0.06     0.28   0.500
  Sub_17                     1.70       0.00       0.00       1.01       0.68       0.00       0.68        0.09     0.35   0.401
  Sub_18                     1.70       0.00       0.00       0.37       1.31       0.00       1.23        0.05     0.20   0.722
  Sub_19                     1.70       0.00       0.00       0.37       1.30       0.00       1.30        0.08     0.29   0.762
  Sub_2                      1.70       0.00       0.00       0.58       1.07       0.04       1.10        0.14     0.59   0.646
  Sub_20                     1.70       0.00       0.00       0.73       0.95       0.00       0.95        0.30     1.14   0.555
  Sub_21                     1.70       0.00       0.00       0.49       1.18       0.00       1.18        0.08     0.31   0.693
  Sub_22                     1.70       0.00       0.00       0.50       1.15       0.03       1.18        0.03     0.12   0.694
  Sub_23                     1.70       0.00       0.00       0.64       1.04       0.00       0.99        0.08     0.32   0.581
  Sub_24                     1.70       0.00       0.00       0.70       0.98       0.00       0.98        0.16     0.61   0.576
  Sub_25                     1.70       0.00       0.00       0.94       0.70       0.05       0.73        0.07     0.30   0.427
  Sub_26                     1.70       0.00       0.00       0.68       1.00       0.00       1.00        0.17     0.67   0.586
  Sub_27                     1.70       0.00       0.00       0.56       1.12       0.00       1.12        0.07     0.27   0.654
  Sub_28                     1.70       0.00       0.00       0.49       1.18       0.00       1.18        0.34     1.31   0.691
  Sub_29                     1.70       0.00       0.00       0.41       1.26       0.00       1.26        0.15     0.59   0.742
  Sub_3                      1.70       0.00       0.00       0.45       1.20       0.03       1.23        0.09     0.38   0.721
  Sub_30                     1.70       0.00       0.00       0.46       1.23       0.00       1.16        0.08     0.33   0.679
  Sub_31                     1.70       0.00       0.00       0.48       1.20       0.00       1.20        0.09     0.36   0.703
  Sub_32                     1.70       0.00       0.00       0.39       1.28       0.00       1.28        0.27     1.02   0.750
  Sub_33                     1.70       0.00       0.00       0.32       1.37       0.00       1.28        0.11     0.45   0.748
  Sub_34                     1.70       0.00       0.00       0.65       1.07       0.00       0.88        0.05     0.24   0.517
  Sub_35                     1.70       0.00       0.00       0.51       1.16       0.00       1.16        0.09     0.34   0.683
  Sub_36                     1.70       0.00       0.00       0.91       0.82       0.00       0.62        0.02     0.11   0.364
  Sub_37                     1.70       0.00       0.00       0.45       1.28       0.00       1.04        0.05     0.23   0.612
  Sub_38                     1.70       0.00       0.00       0.49       1.21       0.00       1.11        0.13     0.53   0.652
  Sub_39                     1.70       0.00       0.00       0.75       0.93       0.00       0.93        0.30     1.16   0.545
  Sub_4                      1.70       0.00       0.00       0.31       1.37       0.00       1.37        0.08     0.31   0.801
  Sub_5                      1.70       0.00       0.00       0.07       1.60       0.00       1.60        0.09     0.34   0.937
  Sub_6                      1.70       0.00       0.00       0.26       1.42       0.00       1.42        0.06     0.25   0.830
  Sub_7                      1.70       0.00       0.00       0.43       1.25       0.00       1.25        0.03     0.11   0.733
  Sub_8                      1.70       0.00       0.00       1.04       0.65       0.00       0.65        0.01     0.02   0.381
  Sub_9                      1.70       0.00       0.00       0.93       0.70       0.05       0.75        0.09     0.41   0.442
  

  ***********************
  LID Performance Summary
  ***********************

  --------------------------------------------------------------------------------------------------------------------
                                         Total      Evap     Infil   Surface    Drain    Initial     Final  Continuity
                                        Inflow      Loss      Loss   Outflow   Outflow   Storage   Storage       Error
  Subcatchment      LID Control             in        in        in        in        in        in        in           %
  --------------------------------------------------------------------------------------------------------------------
  Sub_13            rain_garden          20.88      0.00      4.95      6.24      0.00      1.80     11.52       -0.14
  Sub_13            rain_barrel         328.68      0.00      0.00    294.43      0.00      0.00     34.25        0.00
  Sub_18            rain_garden          21.24      0.00      4.98      6.57      0.00      1.80     11.52       -0.14
  Sub_18            rain_barrel         335.11      0.00      0.00    300.86      0.00      0.00     34.25        0.00
  Sub_23            rain_garden          21.08      0.00      4.96      6.43      0.00      1.80     11.53       -0.14
  Sub_23            rain_barrel         332.25      0.00      0.00    298.00      0.00      0.00     34.25       -0.00
  Sub_25            rain_garden          21.53      0.00      4.99      6.85      0.00      1.80     11.53       -0.14
  Sub_25            rain_barrel         339.48      0.00      0.00    305.23      0.00      0.00     34.25       -0.00
  Sub_30            rain_garden          21.26      0.00      4.98      6.60      0.00      1.80     11.52       -0.14
  Sub_30            rain_barrel         335.29      0.00      0.00    301.04      0.00      0.00     34.25        0.00
  Sub_33            rain_garden          21.10      0.00      4.97      6.44      0.00      1.80     11.52       -0.14
  Sub_33            rain_barrel         332.25      0.00      0.00    298.00      0.00      0.00     34.25        0.00
  Sub_34            rain_garden          20.98      0.00      4.96      6.33      0.00      1.80     11.52       -0.14
  Sub_34            rain_barrel         330.60      0.00      0.00    296.35      0.00      0.00     34.25        0.00
  Sub_36            rain_garden          21.17      0.00      4.99      6.51      0.00      1.80     11.50       -0.14
  Sub_36            rain_barrel         333.61      0.00      0.00    299.36      0.00      0.00     34.25       -0.00
  Sub_37            rain_garden          20.99      0.00      4.96      6.34      0.00      1.80     11.52       -0.14
  Sub_37            rain_barrel         330.59      0.00      0.00    296.34      0.00      0.00     34.25       -0.00
  Sub_38            rain_garden          21.07      0.00      4.94      6.41      0.00      1.80     11.55       -0.14
  Sub_38            rain_barrel         331.82      0.00      0.00    297.57      0.00      0.00     34.25       -0.00
  
  ******************
  Node Depth Summary
  ******************
  
  ---------------------------------------------------------------------------------
                                 Average  Maximum  Maximum  Time of Max    Reported
                                   Depth    Depth      HGL   Occurrence   Max Depth
  Node                 Type         Feet     Feet     Feet  days hr:min        Feet
  ---------------------------------------------------------------------------------
  J1                   JUNCTION     6.03    11.75     5.64     0  18:30       10.22
  J10                  JUNCTION     6.22     8.84     2.54     0  19:11        8.80
  J103                 JUNCTION     6.11    10.56     4.37     0  19:10        9.21
  J104                 JUNCTION     6.14     9.51     3.29     0  19:10        9.05
  J11                  JUNCTION     0.78     4.57     4.57     0  14:25        2.51
  J118                 JUNCTION     6.10    11.25     5.07     0  19:10        9.89
  J12                  JUNCTION     2.00     3.91     2.43     0  20:19        3.79
  J121                 JUNCTION     1.60     6.48     5.47     0  20:18        4.36
  J126                 JUNCTION     0.34     0.50     3.20     0  12:15        0.50
  J13                  JUNCTION     6.06    10.53     4.39     0  19:10       10.17
  J14                  JUNCTION     6.22     8.92     2.62     0  19:11        8.80
  J147                 JUNCTION     0.59     0.86     2.86     0  12:15        0.86
  J151                 JUNCTION     6.21     8.85     2.56     0  19:11        8.81
  J156                 JUNCTION     0.26     0.58     2.58     0  15:54        0.56
  J17                  JUNCTION     2.60     4.79     2.58     0  19:11        4.73
  J18                  JUNCTION     6.20     8.87     2.58     0  18:32        8.82
  J2                   JUNCTION     1.07     5.28     4.91     0  08:47        2.71
  J23                  JUNCTION     0.60     0.86     2.84     0  12:15        0.86
  J25                  JUNCTION     1.56     8.25     7.29     0  08:52        3.52
  J26                  JUNCTION     1.96     7.94     6.50     0  08:47        3.99
  J27                  JUNCTION     2.57     4.45     2.29     0  15:53        4.44
  J3                   JUNCTION     1.26     8.96     8.40     0  20:18        3.88
  J30                  JUNCTION     6.18     9.24     2.98     0  19:10        8.90
  J32                  JUNCTION     6.15     9.38     3.15     0  19:10        9.09
  J4                   JUNCTION     1.81     7.63     6.42     0  08:52        4.97
  J43                  JUNCTION     2.19     7.47     5.77     0  19:10        5.81
  J44                  JUNCTION     6.09    10.35     4.18     0  15:52        9.83
  J46                  JUNCTION     6.08    10.08     3.92     0  15:52        9.71
  J5                   JUNCTION     1.69     7.13     6.04     0  20:18        4.82
  J50                  JUNCTION     6.07    10.07     3.92     0  18:30        9.82
  J52                  JUNCTION     6.05    10.58     4.44     0  19:10       10.21
  J57                  JUNCTION     2.10     8.32     6.72     0  19:12        5.60
  J6                   JUNCTION     2.51     4.42     2.33     0  20:19        4.37
  J63                  JUNCTION     0.33     0.69     2.56     0  15:53        0.66
  J7                   JUNCTION     1.20     6.53     6.11     0  20:31        3.54
  J70                  JUNCTION     0.11     0.59     2.59     0  15:53        0.59
  J71                  JUNCTION     0.19     0.68     2.49     0  15:53        0.67
  J8                   JUNCTION     1.90     8.64     7.27     0  13:15        4.60
  J89                  JUNCTION     1.59     3.49     2.49     0  20:19        3.32
  J9                   JUNCTION     2.60     4.44     2.24     0  15:49        4.44
  J96                  JUNCTION     2.39     5.15     3.18     0  18:32        4.81
  outfall              OUTFALL      7.68     9.50     3.20     0  06:00        9.50
  J155                 STORAGE      4.08     6.37     2.37     0  18:38        6.37
  
  
  *******************
  Node Inflow Summary
  *******************
  
  -------------------------------------------------------------------------------------------------
                                  Maximum  Maximum                  Lateral       Total        Flow
                                  Lateral    Total  Time of Max      Inflow      Inflow     Balance
                                   Inflow   Inflow   Occurrence      Volume      Volume       Error
  Node                 Type           CFS      CFS  days hr:min    10^6 gal    10^6 gal     Percent
  -------------------------------------------------------------------------------------------------
  J1                   JUNCTION      0.67    39.28     0  18:34       0.175         1.7       2.147
  J10                  JUNCTION      0.02    25.83     0  19:10     0.00649        3.62       1.201
  J103                 JUNCTION      0.32    69.14     0  15:52      0.0792        3.02       1.434
  J104                 JUNCTION      0.00    75.67     0  15:52           0        4.47       1.001
  J11                  JUNCTION      0.31     0.36     0  08:42      0.0807      0.0811       0.515
  J118                 JUNCTION      0.39   773.16     0  15:52      0.0997        3.12       1.442
  J12                  JUNCTION      0.76     1.53     0  08:48       0.195       0.337       1.719
  J121                 JUNCTION      0.29     0.52     0  13:18       0.076      0.0764       1.091
  J126                 JUNCTION      1.02     1.02     0  12:15       0.265       0.265       0.015
  J13                  JUNCTION      1.14    55.21     0  19:10       0.297        2.18       1.422
  J14                  JUNCTION      0.00    26.30     0  11:03           0        2.48       1.500
  J147                 JUNCTION      1.16     1.16     0  12:15       0.301       0.301       0.007
  J151                 JUNCTION      0.00    25.55     0  19:10           0         3.3       0.502
  J156                 JUNCTION      0.36     0.42     0  15:53      0.0945      0.0951       0.012
  J17                  JUNCTION      0.11     1.07     0  08:50      0.0291       0.181       2.308
  J18                  JUNCTION      0.00    24.52     0  19:10           0         3.2       1.309
  J2                   JUNCTION      0.35     0.88     0  08:39      0.0762      0.0772       0.898
  J23                  JUNCTION      0.53     1.69     0  12:15       0.132       0.433       0.032
  J25                  JUNCTION      0.34     0.79     0  08:45      0.0875      0.0892       1.677
  J26                  JUNCTION      0.25     1.37     0  13:41      0.0649       0.156       3.735
  J27                  JUNCTION      0.00     2.17     0  11:04           0       0.485      -0.580
  J3                   JUNCTION      0.34     2.12     0  15:54      0.0873       0.269       0.798
  J30                  JUNCTION      0.35    23.13     0  19:10      0.0917        3.27       2.229
  J32                  JUNCTION      0.28    25.57     0  11:02       0.065        3.32       1.548
  J4                   JUNCTION      0.61     6.10     0  15:54       0.158        1.12       0.488
  J43                  JUNCTION      1.31     1.50     0  15:52       0.339       0.339       0.626
  J44                  JUNCTION      0.00   365.09     0  20:00           0        2.67     -15.154
  J46                  JUNCTION      0.31    55.39     0  19:10      0.0795        2.33       1.183
  J5                   JUNCTION      0.24     2.26     0  15:54      0.0547       0.321       0.995
  J50                  JUNCTION      0.00    55.12     0  19:10           0        2.23       1.574
  J52                  JUNCTION      0.30    46.32     0  18:34      0.0668         1.8       1.013
  J57                  JUNCTION      0.33     8.52     0  15:54      0.0828        1.52       0.613
  J6                   JUNCTION      0.66     2.17     0  11:04       0.161       0.491       1.088
  J63                  JUNCTION      0.45     3.94     0  19:10       0.111       0.813       0.016
  J7                   JUNCTION      0.59     5.68     0  15:54       0.153        0.97       0.267
  J70                  JUNCTION      0.11     0.40     0  18:32      0.0241       0.026       0.098
  J71                  JUNCTION      0.23     2.03     0  15:52      0.0531        0.18      -0.019
  J8                   JUNCTION      0.20     1.13     0  13:17      0.0506       0.127       3.220
  J89                  JUNCTION      0.25     1.16     0  08:38      0.0651       0.144       2.181
  J9                   JUNCTION      0.41    20.63     0  19:11      0.0924        1.57       0.090
  J96                  JUNCTION      0.38     0.38     0  12:15      0.0983      0.0983       0.988
  outfall              OUTFALL       0.38    26.84     0  11:03      0.0932        2.44       0.000
  J155                 STORAGE       1.35    62.45     0  15:52        0.35        2.45       0.024
  
  
  **********************
  Node Surcharge Summary
  **********************
  
  Surcharging occurs when water rises above the top of the highest conduit.
  ---------------------------------------------------------------------
                                               Max. Height   Min. Depth
                                   Hours       Above Crown    Below Rim
  Node                 Type      Surcharged           Feet         Feet
  ---------------------------------------------------------------------
  J1                   JUNCTION        4.98          3.746        0.000
  J103                 JUNCTION        5.42          2.563        0.000
  J104                 JUNCTION        5.52          1.511        0.551
  J11                  JUNCTION        7.88          3.566        0.000
  J118                 JUNCTION        5.33          3.247        0.871
  J12                  JUNCTION       11.55          1.914        2.165
  J121                 JUNCTION       11.75          4.976        3.020
  J13                  JUNCTION        5.10          2.529        1.856
  J151                 JUNCTION        5.72          0.854        1.286
  J17                  JUNCTION       15.41          3.039        1.944
  J18                  JUNCTION        5.70          0.870        1.337
  J2                   JUNCTION        8.24          4.031        2.403
  J25                  JUNCTION        8.49          6.500        1.168
  J26                  JUNCTION       13.20          6.190        0.000
  J27                  JUNCTION       15.27          2.447        0.456
  J3                   JUNCTION        8.09          7.462        0.159
  J30                  JUNCTION        5.62          1.241        0.537
  J32                  JUNCTION        5.54          1.382        1.202
  J4                   JUNCTION        8.58          5.627        0.000
  J43                  JUNCTION       15.28          5.970        1.180
  J44                  JUNCTION        5.32          2.355        2.218
  J46                  JUNCTION        5.23          2.077        1.355
  J5                   JUNCTION       12.44          5.627        1.839
  J50                  JUNCTION        5.19          2.067        1.690
  J52                  JUNCTION        5.09          2.578        1.916
  J57                  JUNCTION        6.70          5.318        0.498
  J6                   JUNCTION       15.23          2.421        1.413
  J7                   JUNCTION        6.25          4.525        0.000
  J8                   JUNCTION       15.14          7.137        0.000
  J89                  JUNCTION        7.87          1.493        2.768
  J9                   JUNCTION       15.28          2.440        0.000
  J96                  JUNCTION       15.41          3.653        0.000
  
  
  *********************
  Node Flooding Summary
  *********************
  
  Flooding refers to all water that overflows a node, whether it ponds or not.
  --------------------------------------------------------------------------
                                                             Total   Maximum
                                 Maximum   Time of Max       Flood    Ponded
                        Hours       Rate    Occurrence      Volume     Depth
  Node                 Flooded       CFS   days hr:min    10^6 gal      Feet
  --------------------------------------------------------------------------
  J1                      0.01     29.82      0  18:34       0.001     0.000
  J103                    0.01     16.88      0  19:10       0.001     0.000
  J11                     0.01      0.18      0  14:28       0.000     0.000
  J26                     0.01      1.13      0  13:41       0.000     0.000
  J4                      0.01      1.24      0  08:52       0.000     0.000
  J7                      0.01      1.00      0  20:31       0.000     0.000
  J8                      0.01      0.72      0  13:16       0.000     0.000
  J9                      4.46     20.62      0  19:11       1.086     0.000
  J96                     0.01      0.24      0  18:32       0.000     0.000
  
  
  **********************
  Storage Volume Summary
  **********************
  
  ------------------------------------------------------------------------------------------------
                         Average    Avg   Evap  Exfil     Maximum    Max    Time of Max    Maximum
                          Volume   Pcnt   Pcnt   Pcnt      Volume   Pcnt     Occurrence    Outflow
  Storage Unit          1000 ft³   Full   Loss   Loss    1000 ft³   Full    days hr:min        CFS
  ------------------------------------------------------------------------------------------------
  J155                   160.178   50.8    0.0    0.0     270.091   85.7       0  18:38      36.45
  
  
  ***********************
  Outfall Loading Summary
  ***********************
  
  -----------------------------------------------------------
                         Flow       Avg       Max       Total
                         Freq      Flow      Flow      Volume
  Outfall Node           Pcnt       CFS       CFS    10^6 gal
  -----------------------------------------------------------
  outfall               99.31      7.01     26.84       2.437
  -----------------------------------------------------------
  System                99.31      7.01     26.84       2.437
  
  
  ********************
  Link Flow Summary
  ********************
  
  -----------------------------------------------------------------------------
                                 Maximum  Time of Max   Maximum    Max/    Max/
                                  |Flow|   Occurrence   |Veloc|    Full    Full
  Link                 Type          CFS  days hr:min    ft/sec    Flow   Depth
  -----------------------------------------------------------------------------
  C103_1               CONDUIT      1.91     0  15:54      1.98    0.18    0.73
  C103_3               CONDUIT      2.12     0  15:54      2.05    0.35    1.00
  C103_4               CONDUIT      2.26     0  15:54      1.99    0.37    1.00
  C108                 CONDUIT      0.54     0  15:54      1.27    0.16    0.50
  C110                 CONDUIT      1.31     0  12:15      2.30    0.23    1.00
  C125_1               CONDUIT      8.59     0  15:54      5.04    0.10    1.00
  C125_2               CONDUIT     34.22     0  18:34      0.86    0.43    1.00
  C147                 CONDUIT      5.72     0  15:54      2.94    0.43    1.00
  C147_2               CONDUIT      6.11     0  15:54      4.13    0.46    1.00
  C147_5               CONDUIT      5.31     0  15:54      4.01    0.20    0.67
  C15                  CONDUIT      0.99     0  08:50      1.68    0.11    1.00
  C152                 CONDUIT      1.69     0  12:15      2.56    1.11    0.55
  C152_1               CONDUIT      1.16     0  12:15      1.30    0.77    0.68
  C158                 CONDUIT      1.07     0  08:50      2.03    0.12    1.00
  C159                 CONDUIT     25.82     0  19:10      0.70    0.33    1.00
  C160                 CONDUIT     25.41     0  19:10      0.67    0.32    1.00
  C167                 CONDUIT     24.39     0  11:02      0.74    0.31    1.00
  C168                 CONDUIT     61.58     0  15:52     19.60    0.81    1.00
  C174                 CONDUIT      0.56     0  15:55      1.77    0.41    0.57
  C18_1                CONDUIT     46.25     0  18:34      1.16    0.57    1.00
  C18_2                CONDUIT     54.95     0  19:10      1.37    0.68    1.00
  C2                   CONDUIT     55.12     0  19:10      1.38    0.70    1.00
  C26                  CONDUIT      0.59     0  08:50      1.90    0.24    1.00
  C27                  CONDUIT      0.69     0  08:39      1.36    0.18    1.00
  C38                  CONDUIT      0.38     0  12:07      1.70    0.06    1.00
  C47                  CONDUIT      1.09     0  13:41      1.25    0.12    1.00
  C57                  CONDUIT     75.67     0  15:52      1.89    0.96    1.00
  C62                  CONDUIT     23.05     0  19:10      0.64    0.29    1.00
  C64                  CONDUIT      1.01     0  08:48      1.23    0.08    1.00
  C64_2                CONDUIT      1.59     0  11:04      1.78    0.12    1.00
  C68_1                CONDUIT      2.17     0  11:04      2.26    0.17    1.00
  C68_2                CONDUIT      2.17     0  11:04      2.22    0.17    1.00
  C69                  CONDUIT     20.17     0  19:11      6.42    1.53    1.00
  C70_1                CONDUIT     25.98     0  11:03      0.78    0.37    0.88
  C70_2                CONDUIT     26.50     0  11:03      0.79    0.19    0.92
  C78                  CONDUIT     24.52     0  19:10      0.65    0.31    1.00
  C84                  CONDUIT     68.95     0  15:52      1.72    0.87    1.00
  C85                  CONDUIT    772.92     0  15:52     19.32    8.73    1.00
  C86                  CONDUIT     59.78     0  19:10      1.49    0.75    1.00
  C90_1                CONDUIT      0.94     0  13:17      1.19    0.24    1.00
  C90_2                CONDUIT      0.60     0  11:17      1.67    0.15    1.00
  C96                  CONDUIT      1.02     0  12:15      2.36    0.32    0.43
  
  
  ***************************
  Flow Classification Summary
  ***************************
  
  -------------------------------------------------------------------------------------
                      Adjusted    ---------- Fraction of Time in Flow Class ---------- 
                       /Actual         Up    Down  Sub   Sup   Up    Down  Norm  Inlet 
  Conduit               Length    Dry  Dry   Dry   Crit  Crit  Crit  Crit  Ltd   Ctrl  
  -------------------------------------------------------------------------------------
  C103_1                  1.00   0.00  0.00  0.00  1.00  0.00  0.00  0.00  0.78  0.00
  C103_3                  1.00   0.00  0.00  0.00  1.00  0.00  0.00  0.00  0.34  0.00
  C103_4                  1.00   0.00  0.00  0.00  1.00  0.00  0.00  0.00  0.30  0.00
  C108                    1.00   0.00  0.00  0.00  0.99  0.00  0.00  0.00  0.79  0.00
  C110                    1.00   0.00  0.00  0.00  0.67  0.00  0.00  0.32  0.01  0.00
  C125_1                  1.00   0.00  0.00  0.00  0.71  0.01  0.00  0.28  0.05  0.00
  C125_2                  1.00   0.00  0.00  0.00  1.00  0.00  0.00  0.00  0.00  0.00
  C147                    1.00   0.00  0.00  0.00  1.00  0.00  0.00  0.00  0.36  0.00
  C147_2                  1.00   0.00  0.00  0.00  0.84  0.16  0.00  0.00  0.01  0.00
  C147_5                  1.00   0.00  0.00  0.00  0.81  0.19  0.00  0.00  0.79  0.00
  C15                     1.00   0.00  0.00  0.00  1.00  0.00  0.00  0.00  0.33  0.00
  C152                    1.00   0.00  0.00  0.00  1.00  0.00  0.00  0.00  0.01  0.00
  C152_1                  1.00   0.00  0.00  0.00  1.00  0.00  0.00  0.00  0.04  0.00
  C158                    1.00   0.00  0.00  0.00  0.68  0.00  0.00  0.32  0.00  0.00
  C159                    1.00   0.01  0.01  0.00  0.99  0.00  0.00  0.00  0.01  0.00
  C160                    1.00   0.01  0.03  0.00  0.96  0.00  0.00  0.00  0.00  0.00
  C167                    1.00   0.01  0.04  0.00  0.95  0.00  0.00  0.00  0.01  0.00
  C168                    1.00   0.34  0.02  0.00  0.54  0.00  0.10  0.00  0.10  0.00
  C174                    1.00   0.00  0.00  0.00  1.00  0.00  0.00  0.00  0.01  0.00
  C18_1                   1.00   0.00  0.01  0.00  0.99  0.00  0.00  0.00  0.03  0.00
  C18_2                   1.00   0.00  0.00  0.00  1.00  0.00  0.00  0.00  0.00  0.00
  C2                      1.00   0.00  0.03  0.00  0.97  0.00  0.00  0.00  0.03  0.00
  C26                     1.00   0.00  0.00  0.00  0.66  0.00  0.00  0.34  0.04  0.00
  C27                     1.00   0.00  0.00  0.00  1.00  0.00  0.00  0.00  0.35  0.00
  C38                     1.00   0.00  0.00  0.00  0.68  0.00  0.00  0.32  0.00  0.00
  C47                     1.00   0.00  0.00  0.00  1.00  0.00  0.00  0.00  0.34  0.00
  C57                     1.00   0.01  0.00  0.00  0.99  0.00  0.00  0.00  0.00  0.00
  C62                     1.00   0.00  0.01  0.00  0.99  0.00  0.00  0.00  0.00  0.00
  C64                     1.00   0.00  0.00  0.00  1.00  0.00  0.00  0.00  0.34  0.00
  C64_2                   1.00   0.00  0.00  0.00  1.00  0.00  0.00  0.00  0.33  0.00
  C68_1                   1.00   0.00  0.00  0.00  1.00  0.00  0.00  0.00  0.03  0.00
  C68_2                   1.00   0.00  0.00  0.00  0.99  0.00  0.00  0.00  0.16  0.00
  C69                     1.00   0.00  0.00  0.00  0.68  0.00  0.00  0.32  0.00  0.00
  C70_1                   1.00   0.01  0.03  0.00  0.97  0.00  0.00  0.00  0.01  0.00
  C70_2                   1.00   0.00  0.00  0.00  1.00  0.00  0.00  0.00  0.00  0.00
  C78                     1.00   0.00  0.00  0.00  1.00  0.00  0.00  0.00  0.05  0.00
  C84                     1.00   0.00  0.00  0.00  1.00  0.00  0.00  0.00  0.00  0.00
  C85                     1.00   0.00  0.02  0.00  0.98  0.00  0.00  0.00  0.00  0.00
  C86                     1.00   0.00  0.00  0.00  1.00  0.00  0.00  0.00  0.05  0.00
  C90_1                   1.00   0.00  0.00  0.00  1.00  0.00  0.00  0.00  0.28  0.00
  C90_2                   1.00   0.01  0.00  0.00  0.68  0.00  0.00  0.31  0.02  0.00
  C96                     1.00   0.00  0.00  0.00  1.00  0.00  0.00  0.00  0.20  0.00
  
  
  *************************
  Conduit Surcharge Summary
  *************************
  
  ----------------------------------------------------------------------------
                                                           Hours        Hours 
                         --------- Hours Full --------   Above Full   Capacity
  Conduit                Both Ends  Upstream  Dnstream   Normal Flow   Limited
  ----------------------------------------------------------------------------
  C103_1                      0.01      0.01      8.09      0.01         0.01
  C103_3                      8.09      8.09     12.43      0.01         0.01
  C103_4                     12.43     12.43     15.24      0.01         0.01
  C110                       15.28     15.28     15.48      0.01         0.03
  C125_1                      6.70      6.70     15.72      0.01         0.01
  C125_2                      4.96      4.97      5.08      0.01         0.43
  C147                        6.27      6.27      8.58      0.01         0.01
  C147_2                      8.58      8.58     12.30      0.01         0.01
  C147_5                      0.01      0.01      6.25      0.01         0.01
  C15                        13.20     13.20     15.41      0.01         0.01
  C152                        0.01      0.01      0.01      3.34         0.01
  C158                       15.41     15.41     15.45      0.01         0.01
  C159                        5.72      5.72      5.74      0.01         1.73
  C160                        5.70      5.70      5.72      0.01         2.07
  C167                        5.52      5.52      5.54      0.01         1.95
  C168                        4.89      4.89      7.86      0.01         0.01
  C18_1                       5.08      5.08      5.10      0.01         1.81
  C18_2                       5.08      5.10      5.19      0.01         1.20
  C2                          5.18      5.19      5.22      0.01         1.78
  C26                         7.88      7.88     15.32      0.01         0.01
  C27                         8.24      8.24     14.08      0.01         0.01
  C38                        15.41     15.41     15.54      0.01         0.01
  C47                         8.49      8.49     13.20      0.01         0.01
  C57                         5.42      5.42      5.52      0.01         1.11
  C62                         5.54      5.54      5.62      0.01         0.53
  C64                         7.87      7.87     11.55      0.01         0.01
  C64_2                      11.55     11.55     15.23      0.01         0.01
  C68_1                      15.23     15.23     15.27      0.01         0.03
  C68_2                      15.27     15.27     15.28      0.01         0.02
  C69                        15.28     15.28     15.33      0.20         0.03
  C78                         5.62      5.62      5.70      0.01         0.99
  C84                         5.33      5.33      5.42      0.01         1.75
  C85                         5.31      5.31      5.33      0.05         1.25
  C86                         5.21      5.22      5.32      0.01         1.67
  C90_1                      11.75     11.75     15.14      0.01         0.01
  C90_2                      15.14     15.14     15.54      0.01         0.01
  

  Analysis begun on:  Sun Jun  8 01:20:56 2025
  Analysis ended on:  Sun Jun  8 01:20:59 2025
  Total elapsed time: 00:00:03