
  EPA STORM WATER MANAGEMENT MODEL - VERSION 5.2 (Build 5.2.4)
  PYSWMM TOOLKIT API - VERSION v1.0 (2024-04-17)
  ------------------------------------------------------------

  WARNING 04: minimum elevation drop used for Conduit C70_2
  WARNING 04: minimum elevation drop used for Conduit C85
  
  *************
  Element Count
  *************
  Number of rain gages ...... 1
  Number of subcatchments ... 39
  Number of nodes ........... 43
  Number of links ........... 42
  Number of pollutants ...... 0
  Number of land uses ....... 0
  
  
  ****************
  Raingage Summary
  ****************
                                                      Data       Recording
  Name                 Data Source                    Type       Interval 
  ------------------------------------------------------------------------
  rain_gage            rain_gage_timeseries           INTENSITY   15 min.
  
  
  ********************
  Subcatchment Summary
  ********************
  Name                       Area     Width   %Imperv    %Slope Rain Gage            Outlet              
  -----------------------------------------------------------------------------------------------------------
  Sub_1                      2.62    272.79     55.00    3.9580 rain_gage            J89                 
  Sub_10                     2.19    296.41     77.00    2.4860 rain_gage            J12                 
  Sub_11                     0.67    130.53     57.00    5.0240 rain_gage            J6                  
  Sub_12                     5.31    283.97     49.00    3.4940 rain_gage            J12                 
  Sub_13                     4.38    341.66     50.00    2.9930 rain_gage            J2                  
  Sub_14                    14.91    412.40     52.00    3.9710 rain_gage            J155                
  Sub_15                     3.68    325.75     59.00    4.8800 rain_gage            J96                 
  Sub_16                     2.81    372.64     48.00    3.5770 rain_gage            J32                 
  Sub_17                     4.94    458.98     41.00    4.7410 rain_gage            J30                 
  Sub_18                     1.52    250.00     79.00    2.3090 rain_gage            J8                  
  Sub_19                     2.15    372.00     78.00    3.4760 rain_gage            J121                
  Sub_2                      4.81    406.94     64.00    3.8880 rain_gage            J6                  
  Sub_20                    11.54    261.37     57.00    3.9380 rain_gage            J13                 
  Sub_21                     2.48    159.75     71.00    3.2870 rain_gage            J46                 
  Sub_22                     0.94    200.00     69.00    3.2890 rain_gage            J118                
  Sub_23                     2.95    250.00     63.00    3.6520 rain_gage            J103                
  Sub_24                     5.93    412.94     59.00    3.2030 rain_gage            J4                  
  Sub_25                     3.38    300.00     42.00    3.1260 rain_gage            J52                 
  Sub_26                     6.44    408.85     60.00    3.6440 rain_gage            J1                  
  Sub_27                     2.29    250.00     67.00    3.4680 rain_gage            J118                
  Sub_28                    10.61    229.01     71.00    3.1810 rain_gage            J43                 
  Sub_29                     4.46    300.00     76.00    3.1960 rain_gage            J7                  
  Sub_3                      2.79    466.00     72.00    3.7700 rain_gage            outfall             
  Sub_30                     2.64    390.64     74.00    3.0810 rain_gage            J57                 
  Sub_31                     2.90    292.33     72.00    2.7780 rain_gage            J156                
  Sub_32                     7.63    310.58     77.00    2.8180 rain_gage            J126                
  Sub_33                     3.19    461.41     83.00    3.0790 rain_gage            J63                 
  Sub_34                     2.29    250.00     65.00    2.6240 rain_gage            J5                  
  Sub_35                     2.76    217.64     70.00    2.8170 rain_gage            J3                  
  Sub_36                     1.43    235.88     50.00    2.2300 rain_gage            J70                 
  Sub_37                     1.87    251.70     78.00    3.2300 rain_gage            J71                 
  Sub_38                     4.37    354.85     73.00    3.2410 rain_gage            J23                 
  Sub_39                    11.94    244.72     56.00    2.9530 rain_gage            J147                
  Sub_4                      2.18    358.74     82.00    3.9740 rain_gage            J11                 
  Sub_5                      2.02    268.69     96.00    3.0480 rain_gage            J25                 
  Sub_6                      1.69    314.60     85.00    3.7140 rain_gage            J26                 
  Sub_7                      0.86    147.58     75.00    3.3650 rain_gage            J17                 
  Sub_8                      0.37     73.53     39.00    3.1440 rain_gage            J10                 
  Sub_9                      4.52    345.46     42.00    3.8900 rain_gage            J9                  


  *******************
  LID Control Summary
  *******************
                                   No. of        Unit        Unit      % Area    % Imperv      % Perv
  Subcatchment     LID Control      Units        Area       Width     Covered     Treated     Treated
  ---------------------------------------------------------------------------------------------------
  Sub_19           rain_garden          5       85.00        0.00        0.45        0.00       24.41
  Sub_19           rain_barrel         40        2.95        0.00        0.13       32.46        0.00
  Sub_26           rain_garden         10       85.00        0.00        0.30        0.00        8.85
  Sub_26           rain_barrel         50        2.95        0.00        0.05       17.74        0.00
  Sub_33           rain_garden          5       85.00        0.00        0.31        0.00       21.52
  Sub_33           rain_barrel         30        2.95        0.00        0.06       15.40        0.00
  Sub_36           rain_garden         10       85.00        0.00        1.36        0.00       31.78
  Sub_36           rain_barrel         10        2.95        0.00        0.05       19.23        0.00
  Sub_39           rain_garden         50       85.00        0.00        0.82        0.00       21.99
  Sub_39           rain_barrel         20        2.95        0.00        0.01        4.06        0.00
  Sub_6            rain_garden          5       85.00        0.00        0.58        0.00       46.27
  
  
  ************
  Node Summary
  ************
                                           Invert      Max.    Ponded    External
  Name                 Type                 Elev.     Depth      Area    Inflow  
  -------------------------------------------------------------------------------
  J1                   JUNCTION             -6.11     11.75       0.0
  J10                  JUNCTION             -6.30     10.18       0.0
  J103                 JUNCTION             -6.19     10.56       0.0
  J104                 JUNCTION             -6.22     10.06       0.0
  J11                  JUNCTION              0.00      4.57       0.0
  J118                 JUNCTION             -6.18     12.12       0.0
  J12                  JUNCTION             -1.49      6.08       0.0
  J121                 JUNCTION             -1.01      9.50       0.0
  J126                 JUNCTION              2.71      5.20       0.0
  J13                  JUNCTION             -6.14     12.38       0.0
  J14                  JUNCTION             -6.30     10.18       0.0
  J147                 JUNCTION              2.00      4.84       0.0
  J151                 JUNCTION             -6.29     10.14       0.0
  J156                 JUNCTION              2.00      6.65       0.0
  J17                  JUNCTION             -2.21      6.73       0.0
  J18                  JUNCTION             -6.29     10.21       0.0
  J2                   JUNCTION             -0.37      7.68       0.0
  J23                  JUNCTION              1.98      4.73       0.0
  J25                  JUNCTION             -0.96      9.42       0.0
  J26                  JUNCTION             -1.44      7.94       0.0
  J27                  JUNCTION             -2.16      4.90       0.0
  J3                   JUNCTION             -0.57      9.12       0.0
  J30                  JUNCTION             -6.26      9.78       0.0
  J32                  JUNCTION             -6.23     10.58       0.0
  J4                   JUNCTION             -1.20      7.63       0.0
  J43                  JUNCTION             -1.70      8.65       0.0
  J44                  JUNCTION             -6.18     12.57       0.0
  J46                  JUNCTION             -6.16     11.43       0.0
  J5                   JUNCTION             -1.09      8.97       0.0
  J50                  JUNCTION             -6.15     11.76       0.0
  J52                  JUNCTION             -6.13     12.49       0.0
  J57                  JUNCTION             -1.59      8.82       0.0
  J6                   JUNCTION             -2.09      5.83       0.0
  J63                  JUNCTION              1.87      4.03       0.0
  J7                   JUNCTION             -0.42      6.53       0.0
  J70                  JUNCTION              2.00      7.06       0.0
  J71                  JUNCTION              1.80      7.50       0.0
  J8                   JUNCTION             -1.37      8.64       0.0
  J89                  JUNCTION             -1.00      6.26       0.0
  J9                   JUNCTION             -2.20      4.44       0.0
  J96                  JUNCTION             -1.97      5.15       0.0
  outfall              OUTFALL              -6.30     10.00       0.0
  J155                 STORAGE              -4.00      7.18       0.0
  
  
  ************
  Link Summary
  ************
  Name             From Node        To Node          Type            Length    %Slope Roughness
  ---------------------------------------------------------------------------------------------
  C103_1           J71              J3               CONDUIT          380.3    0.6233    0.0100
  C103_3           J3               J5               CONDUIT          261.0    0.2000    0.0100
  C103_4           J5               J57              CONDUIT          252.8    0.2000    0.0100
  C108             J70              J71              CONDUIT          121.0    0.1612    0.0100
  C110             J43              J44              CONDUIT          240.0    0.1667    0.0100
  C125_1           J57              J1               CONDUIT          257.8    0.9757    0.0100
  C125_2           J1               J52              CONDUIT          254.2    0.0100    0.0100
  C147             J7               J4               CONDUIT          393.0    0.2000    0.0100
  C147_2           J4               J57              CONDUIT          194.0    0.2000    0.0100
  C147_5           J63              J7               CONDUIT          273.4    0.8371    0.0100
  C15              J26              J17              CONDUIT          386.0    0.2000    0.0100
  C152             J23              J63              CONDUIT          346.2    0.0323    0.0100
  C152_1           J147             J23              CONDUIT           56.8    0.0317    0.0100
  C158             J17              J151             CONDUIT           40.0    0.2000    0.0100
  C159             J151             J10              CONDUIT           65.0    0.0100    0.0100
  C160             J18              J151             CONDUIT           65.0    0.0100    0.0100
  C167             J104             J32              CONDUIT           77.0    0.0100    0.0100
  C168             J155             J104             CONDUIT           15.0    6.6815    0.0100
  C174             J156             J71              CONDUIT          226.0    0.0863    0.0100
  C18_1            J52              J13              CONDUIT           24.9    0.0104    0.0100
  C18_2            J13              J50              CONDUIT          142.9    0.0104    0.0100
  C2               J50              J46              CONDUIT           71.3    0.0100    0.0100
  C26              J11              J14              CONDUIT          445.6    0.2917    0.0100
  C27              J2               J89              CONDUIT          314.9    0.2000    0.0100
  C38              J96              J32              CONDUIT          130.0    0.1938    0.0100
  C47              J25              J26              CONDUIT          241.0    0.2000    0.0100
  C57              J103             J104             CONDUIT          262.0    0.0100    0.0100
  C62              J32              J30              CONDUIT          305.9    0.0100    0.0100
  C64              J89              J12              CONDUIT          237.9    0.2039    0.0100
  C64_2            J12              J6               CONDUIT          303.5    0.2000    0.0100
  C68_1            J6               J27              CONDUIT           38.4    0.1808    0.0100
  C68_2            J27              J9               CONDUIT           19.2    0.1804    0.0100
  C69              J9               J10              CONDUIT           52.0    0.2000    0.0100
  C70_1            J10              J14              CONDUIT          279.9    0.0046    0.0100
  C70_2            J14              outfall          CONDUIT            5.5    0.0183    0.0100
  C78              J30              J18              CONDUIT          281.0    0.0100    0.0100
  C84              J118             J103             CONDUIT          163.0    0.0100    0.0100
  C85              J44              J118             CONDUIT            8.0    0.0125    0.0100
  C86              J46              J44              CONDUIT          189.0    0.0100    0.0100
  C90_1            J121             J8               CONDUIT          179.1    0.2000    0.0100
  C90_2            J8               J32              CONDUIT          429.7    0.2000    0.0100
  C96              J126             J63              CONDUIT          582.0    0.1436    0.0100
  
  
  *********************
  Cross Section Summary
  *********************
                                        Full     Full     Hyd.     Max.   No. of     Full
  Conduit          Shape               Depth     Area     Rad.    Width  Barrels     Flow
  ---------------------------------------------------------------------------------------
  C103_1           CIRCULAR             1.50     1.77     0.38     1.50        1    10.78
  C103_3           CIRCULAR             1.50     1.77     0.38     1.50        1     6.11
  C103_4           CIRCULAR             1.50     1.77     0.38     1.50        1     6.11
  C108             CIRCULAR             1.25     1.23     0.31     1.25        1     3.37
  C110             CIRCULAR             1.50     1.77     0.38     1.50        1     5.57
  C125_1           CIRCULAR             3.00     7.07     0.75     3.00        1    85.65
  C125_2           RECT_CLOSED          8.00    40.00     1.54     5.00        1    79.21
  C147             CIRCULAR             2.00     3.14     0.50     2.00        1    13.15
  C147_2           CIRCULAR             2.00     3.14     0.50     2.00        1    13.15
  C147_5           CIRCULAR             2.01     3.16     0.50     2.01        1    27.16
  C15              CIRCULAR             1.75     2.41     0.44     1.75        1     9.21
  C152             CIRCULAR             1.26     1.24     0.31     1.26        1     1.53
  C152_1           CIRCULAR             1.26     1.24     0.31     1.26        1     1.51
  C158             CIRCULAR             1.75     2.41     0.44     1.75        1     9.21
  C159             RECT_CLOSED          8.00    40.00     1.54     5.00        1    79.21
  C160             RECT_CLOSED          8.00    40.00     1.54     5.00        1    79.21
  C167             RECT_CLOSED          8.00    40.00     1.54     5.00        1    79.21
  C168             CIRCULAR             2.00     3.14     0.50     2.00        1    76.02
  C174             CIRCULAR             1.00     0.79     0.25     1.00        1     1.36
  C18_1            RECT_CLOSED          8.00    40.00     1.54     5.00        1    80.82
  C18_2            RECT_CLOSED          8.00    40.00     1.54     5.00        1    80.92
  C2               RECT_CLOSED          8.00    40.00     1.54     5.00        1    79.21
  C26              CIRCULAR             1.00     0.79     0.25     1.00        1     2.50
  C27              CIRCULAR             1.25     1.23     0.31     1.25        1     3.76
  C38              CIRCULAR             1.50     1.77     0.38     1.50        1     6.01
  C47              CIRCULAR             1.75     2.41     0.44     1.75        1     9.21
  C57              RECT_CLOSED          8.00    40.00     1.54     5.00        1    79.21
  C62              RECT_CLOSED          8.00    40.00     1.54     5.00        1    79.21
  C64              CIRCULAR             2.00     3.14     0.50     2.00        1    13.28
  C64_2            CIRCULAR             2.00     3.14     0.50     2.00        1    13.15
  C68_1            CIRCULAR             2.00     3.14     0.50     2.00        1    12.51
  C68_2            CIRCULAR             2.00     3.14     0.50     2.00        1    12.49
  C69              CIRCULAR             2.00     3.14     0.50     2.00        1    13.15
  C70_1            RECT_CLOSED         10.00    50.00     1.67     5.00        1    70.50
  C70_2            RECT_CLOSED         10.00    50.00     1.67     5.00        1   141.22
  C78              RECT_CLOSED          8.00    40.00     1.54     5.00        1    79.21
  C84              RECT_CLOSED          8.00    40.00     1.54     5.00        1    79.21
  C85              RECT_CLOSED          8.00    40.00     1.54     5.00        1    88.56
  C86              RECT_CLOSED          8.00    40.00     1.54     5.00        1    79.21
  C90_1            RECT_CLOSED          1.50     1.36     0.28     0.91        1     3.91
  C90_2            RECT_CLOSED          1.50     1.36     0.28     0.91        1     3.91
  C96              CIRCULAR             1.25     1.23     0.31     1.25        1     3.18
  
  
  ****************
  Analysis Options
  ****************
  Flow Units ............... CFS
  Process Models:
    Rainfall/Runoff ........ YES
    RDII ................... NO
    Snowmelt ............... NO
    Groundwater ............ NO
    Flow Routing ........... YES
    Ponding Allowed ........ NO
    Water Quality .......... NO
  Infiltration Method ...... GREEN_AMPT
  Flow Routing Method ...... DYNWAVE
  Surcharge Method ......... EXTRAN
  Starting Date ............ 06/01/2025 00:00:00
  Ending Date .............. 06/01/2025 23:45:00
  Antecedent Dry Days ...... 0.0
  Report Time Step ......... 00:01:00
  Wet Time Step ............ 00:05:00
  Dry Time Step ............ 00:05:00
  Routing Time Step ........ 5.00 sec
  Variable Time Step ....... YES
  Maximum Trials ........... 8
  Number of Threads ........ 2
  Head Tolerance ........... 0.005000 ft
  
  
  **************************        Volume         Depth
  Runoff Quantity Continuity     acre-feet        inches
  **************************     ---------       -------
  Initial LID Storage ......         0.033         0.003
  Total Precipitation ......        12.744         0.977
  Evaporation Loss .........         0.000         0.000
  Infiltration Loss ........         4.921         0.377
  Surface Runoff ...........         7.477         0.574
  Final Storage ............         0.382         0.029
  Continuity Error (%) .....        -0.029
  
  
  **************************        Volume        Volume
  Flow Routing Continuity        acre-feet      10^6 gal
  **************************     ---------     ---------
  Dry Weather Inflow .......         0.000         0.000
  Wet Weather Inflow .......         7.478         2.437
  Groundwater Inflow .......         0.000         0.000
  RDII Inflow ..............         0.000         0.000
  External Inflow ..........         0.000         0.000
  External Outflow .........         3.309         1.078
  Flooding Loss ............         0.519         0.169
  Evaporation Loss .........         0.000         0.000
  Exfiltration Loss ........         0.000         0.000
  Initial Stored Volume ....         1.621         0.528
  Final Stored Volume ......         5.527         1.801
  Continuity Error (%) .....        -2.824
  
  
  *************************
  Highest Continuity Errors
  *************************
  Node J8 (5.68%)
  Node J26 (5.14%)
  Node J30 (4.43%)
  Node J1 (3.56%)
  Node J103 (3.50%)
  
  
  ***************************
  Time-Step Critical Elements
  ***************************
  Link C168 (32.82%)
  Link C70_2 (31.32%)
  Link C85 (29.58%)
  
  
  ********************************
  Highest Flow Instability Indexes
  ********************************
  Link C85 (11)
  Link C167 (7)
  Link C84 (5)
  Link C160 (4)
  Link C159 (4)
  
  
  *********************************
  Most Frequent Nonconverging Nodes
  *********************************
  Node outfall (1.66%)
  Node J26 (0.40%)
  Node J4 (0.39%)
  Node J44 (0.37%)
  Node J118 (0.35%)
  
  
  *************************
  Routing Time Step Summary
  *************************
  Minimum Time Step           :     0.50 sec
  Average Time Step           :     1.44 sec
  Maximum Time Step           :     5.00 sec
  % of Time in Steady State   :     0.00
  Average Iterations per Step :     2.16
  % of Steps Not Converging   :     1.66
  Time Step Frequencies       :
      5.000 -  3.155 sec      :     6.40 %
      3.155 -  1.991 sec      :    29.31 %
      1.991 -  1.256 sec      :     2.31 %
      1.256 -  0.792 sec      :     1.87 %
      0.792 -  0.500 sec      :    60.11 %
  
  
  ***************************
  Subcatchment Runoff Summary
  ***************************
  
  ------------------------------------------------------------------------------------------------------------------------------
                            Total      Total      Total      Total     Imperv       Perv      Total       Total     Peak  Runoff
                           Precip      Runon       Evap      Infil     Runoff     Runoff     Runoff      Runoff   Runoff   Coeff
  Subcatchment                 in         in         in         in         in         in         in    10^6 gal      CFS
  ------------------------------------------------------------------------------------------------------------------------------
  Sub_1                      0.98       0.00       0.00       0.44       0.52       0.00       0.52        0.04     0.59   0.529
  Sub_10                     0.98       0.00       0.00       0.22       0.72       0.00       0.72        0.04     0.69   0.741
  Sub_11                     0.98       0.00       0.00       0.42       0.54       0.00       0.54        0.01     0.16   0.549
  Sub_12                     0.98       0.00       0.00       0.50       0.46       0.00       0.46        0.07     1.06   0.471
  Sub_13                     0.98       0.00       0.00       0.49       0.47       0.00       0.47        0.06     0.89   0.481
  Sub_14                     0.98       0.00       0.00       0.47       0.49       0.00       0.49        0.20     3.15   0.500
  Sub_15                     0.98       0.00       0.00       0.40       0.55       0.00       0.55        0.06     0.89   0.568
  Sub_16                     0.98       0.00       0.00       0.51       0.45       0.00       0.45        0.03     0.55   0.462
  Sub_17                     0.98       0.00       0.00       0.58       0.39       0.00       0.39        0.05     0.83   0.395
  Sub_18                     0.98       0.00       0.00       0.21       0.74       0.00       0.74        0.03     0.49   0.760
  Sub_19                     0.98       0.00       0.00       0.39       0.73       0.02       0.51        0.03     0.47   0.519
  Sub_2                      0.98       0.00       0.00       0.35       0.60       0.00       0.60        0.08     1.25   0.616
  Sub_20                     0.98       0.00       0.00       0.42       0.54       0.00       0.54        0.17     2.67   0.548
  Sub_21                     0.98       0.00       0.00       0.28       0.67       0.00       0.67        0.04     0.72   0.683
  Sub_22                     0.98       0.00       0.00       0.30       0.65       0.00       0.65        0.02     0.26   0.664
  Sub_23                     0.98       0.00       0.00       0.36       0.59       0.00       0.59        0.05     0.76   0.606
  Sub_24                     0.98       0.00       0.00       0.40       0.55       0.00       0.55        0.09     1.43   0.568
  Sub_25                     0.98       0.00       0.00       0.57       0.40       0.00       0.40        0.04     0.58   0.404
  Sub_26                     0.98       0.00       0.00       0.47       0.56       0.00       0.46        0.08     1.29   0.473
  Sub_27                     0.98       0.00       0.00       0.32       0.63       0.00       0.63        0.04     0.63   0.645
  Sub_28                     0.98       0.00       0.00       0.28       0.67       0.00       0.67        0.19     3.04   0.683
  Sub_29                     0.98       0.00       0.00       0.23       0.71       0.00       0.71        0.09     1.38   0.731
  Sub_3                      0.98       0.00       0.00       0.27       0.68       0.00       0.68        0.05     0.82   0.693
  Sub_30                     0.98       0.00       0.00       0.25       0.70       0.00       0.70        0.05     0.80   0.712
  Sub_31                     0.98       0.00       0.00       0.27       0.68       0.00       0.68        0.05     0.85   0.693
  Sub_32                     0.98       0.00       0.00       0.22       0.72       0.00       0.72        0.15     2.39   0.741
  Sub_33                     0.98       0.00       0.00       0.26       0.78       0.00       0.66        0.06     0.91   0.673
  Sub_34                     0.98       0.00       0.00       0.34       0.61       0.00       0.61        0.04     0.61   0.625
  Sub_35                     0.98       0.00       0.00       0.29       0.66       0.00       0.66        0.05     0.79   0.673
  Sub_36                     0.98       0.00       0.00       0.55       0.46       0.00       0.37        0.01     0.23   0.383
  Sub_37                     0.98       0.00       0.00       0.22       0.73       0.00       0.73        0.04     0.60   0.751
  Sub_38                     0.98       0.00       0.00       0.26       0.69       0.00       0.69        0.08     1.30   0.702
  Sub_39                     0.98       0.00       0.00       0.44       0.52       0.00       0.50        0.16     2.58   0.512
  Sub_4                      0.98       0.00       0.00       0.18       0.77       0.00       0.77        0.05     0.73   0.789
  Sub_5                      0.98       0.00       0.00       0.04       0.90       0.00       0.90        0.05     0.79   0.924
  Sub_6                      0.98       0.00       0.00       0.15       0.79       0.00       0.79        0.04     0.58   0.813
  Sub_7                      0.98       0.00       0.00       0.24       0.71       0.00       0.71        0.02     0.26   0.722
  Sub_8                      0.98       0.00       0.00       0.60       0.37       0.00       0.37        0.00     0.06   0.375
  Sub_9                      0.98       0.00       0.00       0.57       0.40       0.00       0.40        0.05     0.77   0.404
  

  ***********************
  LID Performance Summary
  ***********************

  --------------------------------------------------------------------------------------------------------------------
                                         Total      Evap     Infil   Surface    Drain    Initial     Final  Continuity
                                        Inflow      Loss      Loss   Outflow   Outflow   Storage   Storage       Error
  Subcatchment      LID Control             in        in        in        in        in        in        in           %
  --------------------------------------------------------------------------------------------------------------------
  Sub_19            rain_garden           2.05      0.00      0.00      0.00      0.00      2.40      4.45       -0.11
  Sub_19            rain_barrel         188.28      0.00      0.00    154.03      0.00      0.00     34.25        0.00
  Sub_26            rain_garden           0.98      0.00      0.00      0.00      0.00      2.40      3.38       -0.00
  Sub_26            rain_barrel         189.80      0.00      0.00    155.55      0.00      0.00     34.25       -0.00
  Sub_33            rain_garden           0.98      0.00      0.00      0.00      0.00      2.40      3.38       -0.00
  Sub_33            rain_barrel         188.32      0.00      0.00    154.07      0.00      0.00     34.25        0.00
  Sub_36            rain_garden           0.98      0.00      0.00      0.00      0.00      2.40      3.38       -0.00
  Sub_36            rain_barrel         188.44      0.00      0.00    154.19      0.00      0.00     34.25        0.00
  Sub_39            rain_garden           0.98      0.00      0.00      0.00      0.00      2.40      3.38       -0.00
  Sub_39            rain_barrel         186.90      0.00      0.00    152.65      0.00      0.00     34.25        0.00
  Sub_6             rain_garden           0.98      0.00      0.00      0.00      0.00      2.40      3.38       -0.00
  
  ******************
  Node Depth Summary
  ******************
  
  ---------------------------------------------------------------------------------
                                 Average  Maximum  Maximum  Time of Max    Reported
                                   Depth    Depth      HGL   Occurrence   Max Depth
  Node                 Type         Feet     Feet     Feet  days hr:min        Feet
  ---------------------------------------------------------------------------------
  J1                   JUNCTION     6.22    10.41     4.31     0  08:08        9.92
  J10                  JUNCTION     6.40     8.79     2.49     0  08:08        8.65
  J103                 JUNCTION     6.30    10.49     4.30     0  07:31        8.93
  J104                 JUNCTION     6.32     9.37     3.15     0  08:08        8.79
  J11                  JUNCTION     0.81     4.57     4.57     0  05:46        2.46
  J118                 JUNCTION     6.28    11.30     5.13     0  07:31        9.08
  J12                  JUNCTION     2.09     6.08     4.59     0  05:43        3.76
  J121                 JUNCTION     1.65     9.50     8.49     0  05:41        4.39
  J126                 JUNCTION     0.26     0.83     3.54     0  06:15        0.83
  J13                  JUNCTION     6.24    10.38     4.24     0  08:08        9.52
  J14                  JUNCTION     6.40     8.77     2.47     0  07:34        8.75
  J147                 JUNCTION     0.47     1.57     3.57     0  06:15        1.57
  J151                 JUNCTION     6.39     8.77     2.48     0  08:08        8.64
  J156                 JUNCTION     0.18     0.56     2.56     0  06:15        0.56
  J17                  JUNCTION     2.70     4.71     2.49     0  08:08        4.56
  J18                  JUNCTION     6.38     8.85     2.56     0  08:08        8.62
  J2                   JUNCTION     1.13     7.68     7.31     0  05:48        2.66
  J23                  JUNCTION     0.48     1.54     3.52     0  06:15        1.54
  J25                  JUNCTION     1.61     9.42     8.46     0  05:45        3.32
  J26                  JUNCTION     2.03     7.94     6.50     0  05:42        3.80
  J27                  JUNCTION     2.67     4.44     2.28     0  07:30        4.42
  J3                   JUNCTION     1.33     6.61     6.05     0  05:45        3.46
  J30                  JUNCTION     6.36     9.16     2.90     0  08:08        8.78
  J32                  JUNCTION     6.33     9.78     3.55     0  07:31        8.81
  J4                   JUNCTION     1.90     7.16     5.96     0  06:45        4.41
  J43                  JUNCTION     2.28     7.55     5.85     0  08:08        4.61
  J44                  JUNCTION     6.28    10.17     3.99     0  08:08        9.08
  J46                  JUNCTION     6.26     9.69     3.53     0  08:08        9.11
  J5                   JUNCTION     1.77     8.97     7.88     0  05:42        4.23
  J50                  JUNCTION     6.26     9.92     3.77     0  07:31        9.24
  J52                  JUNCTION     6.24    10.43     4.29     0  08:08        9.55
  J57                  JUNCTION     2.18     5.88     4.29     0  07:31        5.13
  J6                   JUNCTION     2.61     4.40     2.31     0  08:11        4.37
  J63                  JUNCTION     0.24     0.70     2.57     0  06:15        0.70
  J7                   JUNCTION     1.29     5.37     4.95     0  07:00        3.23
  J70                  JUNCTION     0.08     0.50     2.50     0  08:09        0.49
  J71                  JUNCTION     0.14     0.63     2.44     0  07:34        0.62
  J8                   JUNCTION     1.97     8.64     7.27     0  05:44        4.18
  J89                  JUNCTION     1.66     3.46     2.46     0  08:08        3.27
  J9                   JUNCTION     2.70     4.44     2.24     0  07:30        4.44
  J96                  JUNCTION     2.48     5.15     3.18     0  07:31        4.58
  outfall              OUTFALL      8.24     9.50     3.20     0  06:00        9.50
  J155                 STORAGE      4.19     6.32     2.32     0  08:09        6.31
  
  
  *******************
  Node Inflow Summary
  *******************
  
  -------------------------------------------------------------------------------------------------
                                  Maximum  Maximum                  Lateral       Total        Flow
                                  Lateral    Total  Time of Max      Inflow      Inflow     Balance
                                   Inflow   Inflow   Occurrence      Volume      Volume       Error
  Node                 Type           CFS      CFS  days hr:min    10^6 gal    10^6 gal     Percent
  -------------------------------------------------------------------------------------------------
  J1                   JUNCTION      1.29    28.08     0  07:33      0.0809       0.997       3.695
  J10                  JUNCTION      0.06    25.35     0  08:08     0.00367        1.57       2.764
  J103                 JUNCTION      0.76    59.18     0  07:31      0.0474        1.52       3.624
  J104                 JUNCTION      0.00    60.26     0  08:08           0        2.75       1.497
  J11                  JUNCTION      0.73     0.73     0  06:15      0.0456      0.0504       1.178
  J118                 JUNCTION      0.89   196.75     0  07:31      0.0559        1.47      -2.377
  J12                  JUNCTION      1.75     3.43     0  05:51       0.109       0.234       2.384
  J121                 JUNCTION      0.47     0.93     0  05:41      0.0297      0.0325       2.280
  J126                 JUNCTION      2.39     2.39     0  06:15        0.15        0.15      -0.011
  J13                  JUNCTION      2.67    69.54     0  07:31       0.168         1.2       2.152
  J14                  JUNCTION      0.00    21.65     0  09:01           0        1.14       3.276
  J147                 JUNCTION      2.58     2.58     0  06:15       0.162       0.162       0.000
  J151                 JUNCTION      0.00    25.06     0  08:08           0        1.55       1.042
  J156                 JUNCTION      0.85     0.85     0  06:15      0.0534      0.0535      -0.020
  J17                  JUNCTION      0.26     1.95     0  05:43      0.0165       0.121       3.594
  J18                  JUNCTION      0.00    24.15     0  08:08           0        1.53       2.803
  J2                   JUNCTION      0.89     0.89     0  06:15      0.0559      0.0638       1.070
  J23                  JUNCTION      1.30     3.88     0  06:15      0.0814       0.244      -0.001
  J25                  JUNCTION      0.79     1.58     0  05:41      0.0494      0.0566       2.717
  J26                  JUNCTION      0.58     2.17     0  05:34      0.0364       0.104       5.416
  J27                  JUNCTION      0.00     4.82     0  05:51           0       0.316       0.187
  J3                   JUNCTION      0.79     2.47     0  06:15      0.0494       0.166       1.211
  J30                  JUNCTION      0.83    22.94     0  08:08      0.0518        1.59       4.636
  J32                  JUNCTION      0.55    21.67     0  08:08      0.0345         1.7       3.030
  J4                   JUNCTION      1.43     9.99     0  06:15      0.0894       0.649       0.823
  J43                  JUNCTION      3.04     3.04     0  06:15       0.192       0.192       1.149
  J44                  JUNCTION      0.00   363.13     0  07:29           0        1.43      -0.620
  J46                  JUNCTION      0.72    63.48     0  07:31      0.0449        1.24       2.203
  J5                   JUNCTION      0.61     3.24     0  05:46       0.038       0.214       1.426
  J50                  JUNCTION      0.00    75.72     0  07:31           0        1.21       2.213
  J52                  JUNCTION      0.58    74.36     0  07:31      0.0362        1.03       3.206
  J57                  JUNCTION      0.80    13.85     0  06:15      0.0498       0.912       1.029
  J6                   JUNCTION      1.41     4.81     0  05:51      0.0883       0.321       1.344
  J63                  JUNCTION      0.91     7.17     0  06:15      0.0571       0.452      -0.025
  J7                   JUNCTION      1.38     8.55     0  06:15      0.0865       0.547       0.353
  J70                  JUNCTION      0.23     0.31     0  08:12      0.0146      0.0151       0.035
  J71                  JUNCTION      0.60     1.95     0  08:08      0.0373       0.107      -0.105
  J8                   JUNCTION      0.49     1.39     0  05:44      0.0306      0.0662       6.017
  J89                  JUNCTION      0.59     1.82     0  05:37      0.0368       0.116       2.776
  J9                   JUNCTION      0.77    16.22     0  08:08      0.0485        0.51       0.157
  J96                  JUNCTION      0.89     0.89     0  06:15      0.0555      0.0556       1.828
  outfall              OUTFALL       0.82    21.85     0  09:01      0.0514        1.08       0.000
  J155                 STORAGE       3.15    47.39     0  07:30       0.198        2.15      -0.000
  
  
  **********************
  Node Surcharge Summary
  **********************
  
  Surcharging occurs when water rises above the top of the highest conduit.
  ---------------------------------------------------------------------
                                               Max. Height   Min. Depth
                                   Hours       Above Crown    Below Rim
  Node                 Type      Surcharged           Feet         Feet
  ---------------------------------------------------------------------
  J1                   JUNCTION        1.37          2.414        1.332
  J103                 JUNCTION        1.70          2.490        0.073
  J104                 JUNCTION        1.76          1.370        0.692
  J11                  JUNCTION        4.15          3.566        0.000
  J118                 JUNCTION        1.64          3.304        0.814
  J12                  JUNCTION        5.01          4.079        0.000
  J121                 JUNCTION        5.06          7.996        0.000
  J13                  JUNCTION        1.46          2.381        2.004
  J147                 JUNCTION        1.23          0.316        3.273
  J151                 JUNCTION        1.88          0.773        1.367
  J17                  JUNCTION       18.16          2.958        2.025
  J18                  JUNCTION        1.87          0.850        1.357
  J2                   JUNCTION        4.34          6.434        0.000
  J23                  JUNCTION        1.20          0.282        3.191
  J25                  JUNCTION        4.47          7.668        0.000
  J26                  JUNCTION        5.53          6.190        0.000
  J27                  JUNCTION       18.11          2.441        0.462
  J3                   JUNCTION        4.26          5.114        2.507
  J30                  JUNCTION        1.82          1.164        0.614
  J32                  JUNCTION        1.78          1.778        0.806
  J4                   JUNCTION        4.47          5.162        0.465
  J43                  JUNCTION       18.13          6.051        1.099
  J44                  JUNCTION        1.63          2.172        2.401
  J46                  JUNCTION        1.55          1.686        1.746
  J5                   JUNCTION        5.23          7.466        0.000
  J50                  JUNCTION        1.52          1.919        1.838
  J52                  JUNCTION        1.45          2.425        2.069
  J57                  JUNCTION        2.48          2.882        2.934
  J6                   JUNCTION       18.10          2.402        1.432
  J7                   JUNCTION        3.11          3.362        1.163
  J8                   JUNCTION       18.07          7.137        0.000
  J89                  JUNCTION        4.11          1.463        2.798
  J9                   JUNCTION       18.11          2.440        0.000
  J96                  JUNCTION       18.16          3.653        0.000
  
  
  *********************
  Node Flooding Summary
  *********************
  
  Flooding refers to all water that overflows a node, whether it ponds or not.
  --------------------------------------------------------------------------
                                                             Total   Maximum
                                 Maximum   Time of Max       Flood    Ponded
                        Hours       Rate    Occurrence      Volume     Depth
  Node                 Flooded       CFS   days hr:min    10^6 gal      Feet
  --------------------------------------------------------------------------
  J11                     0.01      0.30      0  05:46       0.000     0.000
  J12                     0.01      1.11      0  05:43       0.000     0.000
  J121                    0.01      0.33      0  05:41       0.000     0.000
  J2                      0.01      0.19      0  05:48       0.000     0.000
  J25                     0.01      0.27      0  05:45       0.000     0.000
  J26                     0.01      1.06      0  05:42       0.000     0.000
  J5                      0.01      1.04      0  05:42       0.000     0.000
  J8                      0.01      0.43      0  05:44       0.000     0.000
  J9                      0.84     16.22      0  08:08       0.169     0.000
  J96                     0.01      0.14      0  07:31       0.000     0.000
  
  
  **********************
  Storage Volume Summary
  **********************
  
  ------------------------------------------------------------------------------------------------
                         Average    Avg   Evap  Exfil     Maximum    Max    Time of Max    Maximum
                          Volume   Pcnt   Pcnt   Pcnt      Volume   Pcnt     Occurrence    Outflow
  Storage Unit          1000 ft³   Full   Loss   Loss    1000 ft³   Full    days hr:min        CFS
  ------------------------------------------------------------------------------------------------
  J155                   164.916   52.4    0.0    0.0     267.372   84.9       0  08:09      36.98
  
  
  ***********************
  Outfall Loading Summary
  ***********************
  
  -----------------------------------------------------------
                         Flow       Avg       Max       Total
                         Freq      Flow      Flow      Volume
  Outfall Node           Pcnt       CFS       CFS    10^6 gal
  -----------------------------------------------------------
  outfall               68.26      6.75     21.85       1.078
  -----------------------------------------------------------
  System                68.26      6.75     21.85       1.078
  
  
  ********************
  Link Flow Summary
  ********************
  
  -----------------------------------------------------------------------------
                                 Maximum  Time of Max   Maximum    Max/    Max/
                                  |Flow|   Occurrence   |Veloc|    Full    Full
  Link                 Type          CFS  days hr:min    ft/sec    Flow   Depth
  -----------------------------------------------------------------------------
  C103_1               CONDUIT      1.87     0  08:08      2.93    0.17    0.71
  C103_3               CONDUIT      2.67     0  05:46      2.91    0.44    1.00
  C103_4               CONDUIT      3.07     0  06:15      3.13    0.50    1.00
  C108                 CONDUIT      0.41     0  08:10      1.18    0.12    0.44
  C110                 CONDUIT      3.04     0  06:15      3.26    0.55    1.00
  C125_1               CONDUIT     13.93     0  06:11      7.57    0.16    1.00
  C125_2               CONDUIT     20.37     0  07:33      1.03    0.26    1.00
  C147                 CONDUIT      8.56     0  06:15      4.25    0.65    1.00
  C147_2               CONDUIT      9.99     0  06:15      6.05    0.76    1.00
  C147_5               CONDUIT      7.17     0  06:15      4.81    0.26    0.68
  C15                  CONDUIT      1.71     0  05:43      2.47    0.19    1.00
  C152                 CONDUIT      3.88     0  06:15      3.74    2.53    0.78
  C152_1               CONDUIT      2.58     0  06:15      2.08    1.70    1.00
  C158                 CONDUIT      1.95     0  05:43      2.93    0.21    1.00
  C159                 CONDUIT     25.35     0  08:08      0.63    0.32    1.00
  C160                 CONDUIT     24.87     0  08:08      0.62    0.31    1.00
  C167                 CONDUIT     21.40     0  08:08      0.54    0.27    1.00
  C168                 CONDUIT     46.12     0  07:30     14.68    0.61    1.00
  C174                 CONDUIT      0.85     0  06:15      2.28    0.63    0.54
  C18_1                CONDUIT     72.23     0  07:31      1.81    0.89    1.00
  C18_2                CONDUIT     68.47     0  07:31      1.71    0.85    1.00
  C2                   CONDUIT     75.72     0  07:31      1.89    0.96    1.00
  C26                  CONDUIT      0.78     0  05:48      2.66    0.31    1.00
  C27                  CONDUIT      0.97     0  05:49      2.29    0.26    1.00
  C38                  CONDUIT      0.89     0  06:14      2.46    0.15    1.00
  C47                  CONDUIT      1.61     0  05:45      1.79    0.17    1.00
  C57                  CONDUIT     60.26     0  08:08      1.51    0.76    1.00
  C62                  CONDUIT     22.85     0  08:08      0.57    0.29    1.00
  C64                  CONDUIT      1.72     0  05:51      1.93    0.13    1.00
  C64_2                CONDUIT      3.43     0  05:51      2.76    0.26    1.00
  C68_1                CONDUIT      4.82     0  05:51      3.42    0.39    1.00
  C68_2                CONDUIT      4.83     0  05:51      3.41    0.39    1.00
  C69                  CONDUIT     15.59     0  08:08      4.96    1.19    1.00
  C70_1                CONDUIT     21.64     0  09:01      0.54    0.31    0.87
  C70_2                CONDUIT     21.83     0  09:01      0.55    0.15    0.89
  C78                  CONDUIT     24.15     0  08:08      0.60    0.30    1.00
  C84                  CONDUIT     58.91     0  07:31      1.47    0.74    1.00
  C85                  CONDUIT    361.09     0  07:29      9.03    4.08    1.00
  C86                  CONDUIT     63.22     0  07:31      1.58    0.80    1.00
  C90_1                CONDUIT      0.94     0  05:44      1.41    0.24    1.00
  C90_2                CONDUIT      1.29     0  05:42      2.46    0.33    1.00
  C96                  CONDUIT      2.39     0  06:15      3.02    0.75    0.61
  
  
  ***************************
  Flow Classification Summary
  ***************************
  
  -------------------------------------------------------------------------------------
                      Adjusted    ---------- Fraction of Time in Flow Class ---------- 
                       /Actual         Up    Down  Sub   Sup   Up    Down  Norm  Inlet 
  Conduit               Length    Dry  Dry   Dry   Crit  Crit  Crit  Crit  Ltd   Ctrl  
  -------------------------------------------------------------------------------------
  C103_1                  1.00   0.13  0.00  0.00  0.87  0.00  0.00  0.00  0.81  0.00
  C103_3                  1.00   0.13  0.00  0.00  0.87  0.00  0.00  0.00  0.10  0.00
  C103_4                  1.00   0.13  0.00  0.00  0.87  0.00  0.00  0.00  0.04  0.00
  C108                    1.00   0.13  0.00  0.00  0.87  0.00  0.00  0.00  0.71  0.00
  C110                    1.00   0.13  0.00  0.00  0.77  0.00  0.00  0.10  0.00  0.00
  C125_1                  1.00   0.13  0.00  0.00  0.78  0.00  0.00  0.09  0.02  0.00
  C125_2                  1.00   0.13  0.00  0.00  0.87  0.00  0.00  0.00  0.00  0.00
  C147                    1.00   0.13  0.00  0.00  0.87  0.00  0.00  0.00  0.08  0.00
  C147_2                  1.00   0.13  0.00  0.00  0.82  0.05  0.00  0.00  0.00  0.00
  C147_5                  1.00   0.13  0.00  0.00  0.82  0.06  0.00  0.00  0.83  0.00
  C15                     1.00   0.13  0.00  0.00  0.87  0.00  0.00  0.00  0.09  0.00
  C152                    1.00   0.13  0.00  0.00  0.87  0.00  0.00  0.00  0.00  0.00
  C152_1                  1.00   0.13  0.00  0.00  0.87  0.00  0.00  0.00  0.17  0.00
  C158                    1.00   0.13  0.00  0.00  0.77  0.00  0.00  0.10  0.00  0.00
  C159                    1.00   0.13  0.01  0.00  0.87  0.00  0.00  0.00  0.01  0.00
  C160                    1.00   0.13  0.02  0.00  0.85  0.00  0.00  0.00  0.00  0.00
  C167                    1.00   0.13  0.02  0.00  0.84  0.00  0.00  0.00  0.00  0.00
  C168                    1.00   0.23  0.01  0.00  0.71  0.01  0.04  0.00  0.19  0.00
  C174                    1.00   0.13  0.00  0.00  0.87  0.00  0.00  0.00  0.01  0.00
  C18_1                   1.00   0.13  0.00  0.00  0.87  0.00  0.00  0.00  0.02  0.00
  C18_2                   1.00   0.13  0.00  0.00  0.87  0.00  0.00  0.00  0.00  0.00
  C2                      1.00   0.13  0.02  0.00  0.85  0.00  0.00  0.00  0.02  0.00
  C26                     1.00   0.13  0.00  0.00  0.77  0.00  0.00  0.11  0.01  0.00
  C27                     1.00   0.13  0.00  0.00  0.87  0.00  0.00  0.00  0.08  0.00
  C38                     1.00   0.13  0.00  0.00  0.77  0.00  0.00  0.10  0.00  0.00
  C47                     1.00   0.13  0.00  0.00  0.87  0.00  0.00  0.00  0.11  0.00
  C57                     1.00   0.13  0.00  0.00  0.87  0.00  0.00  0.00  0.00  0.00
  C62                     1.00   0.13  0.00  0.00  0.87  0.00  0.00  0.00  0.00  0.00
  C64                     1.00   0.13  0.00  0.00  0.87  0.00  0.00  0.00  0.11  0.00
  C64_2                   1.00   0.13  0.00  0.00  0.87  0.00  0.00  0.00  0.10  0.00
  C68_1                   1.00   0.13  0.00  0.00  0.87  0.00  0.00  0.00  0.00  0.00
  C68_2                   1.00   0.13  0.00  0.00  0.87  0.00  0.00  0.00  0.03  0.00
  C69                     1.00   0.13  0.00  0.00  0.77  0.00  0.00  0.10  0.00  0.00
  C70_1                   1.00   0.13  0.01  0.00  0.85  0.00  0.00  0.00  0.00  0.00
  C70_2                   1.00   0.00  0.00  0.00  1.00  0.00  0.00  0.00  0.00  0.00
  C78                     1.00   0.13  0.00  0.00  0.87  0.00  0.00  0.00  0.01  0.00
  C84                     1.00   0.13  0.00  0.00  0.87  0.00  0.00  0.00  0.00  0.00
  C85                     1.00   0.13  0.01  0.00  0.86  0.00  0.00  0.00  0.00  0.00
  C86                     1.00   0.13  0.00  0.00  0.87  0.00  0.00  0.00  0.02  0.00
  C90_1                   1.00   0.13  0.00  0.00  0.87  0.00  0.00  0.00  0.07  0.00
  C90_2                   1.00   0.13  0.00  0.00  0.77  0.00  0.00  0.10  0.00  0.00
  C96                     1.00   0.13  0.00  0.00  0.87  0.00  0.00  0.00  0.14  0.00
  
  
  *************************
  Conduit Surcharge Summary
  *************************
  
  ----------------------------------------------------------------------------
                                                           Hours        Hours 
                         --------- Hours Full --------   Above Full   Capacity
  Conduit                Both Ends  Upstream  Dnstream   Normal Flow   Limited
  ----------------------------------------------------------------------------
  C103_1                      0.01      0.01      4.26      0.01         0.01
  C103_3                      4.26      4.26      5.23      0.01         0.01
  C103_4                      5.23      5.23     18.10      0.01         0.01
  C110                       18.13     18.13     18.18      0.01         0.01
  C125_1                      2.48      2.48     18.24      0.01         0.01
  C125_2                      1.36      1.37      1.45      0.01         0.09
  C147                        3.15      3.15      4.47      0.01         0.01
  C147_2                      4.47      4.47      5.24      0.01         0.01
  C147_5                      0.01      0.01      3.11      0.01         0.01
  C15                         5.53      5.53     18.16      0.01         0.01
  C152                        0.01      1.20      0.01      2.53         0.01
  C152_1                      1.20      1.23      1.20      1.94         1.20
  C158                       18.16     18.16     18.16      0.01         0.01
  C159                        1.88      1.88      1.89      0.01         0.40
  C160                        1.87      1.87      1.88      0.01         0.42
  C167                        1.76      1.76      1.78      0.01         0.37
  C168                        1.19      1.19      4.09      0.01         0.01
  C18_1                       1.45      1.45      1.46      0.01         0.32
  C18_2                       1.46      1.46      1.52      0.01         0.23
  C2                          1.52      1.52      1.55      0.01         0.33
  C26                         4.15      4.15     18.13      0.01         0.01
  C27                         4.34      4.34      5.85      0.01         0.01
  C38                        18.16     18.16     18.19      0.01         0.01
  C47                         4.47      4.47      5.53      0.01         0.01
  C57                         1.69      1.70      1.76      0.01         0.23
  C62                         1.77      1.78      1.82      0.01         0.14
  C64                         4.11      4.11      5.00      0.01         0.01
  C64_2                       5.00      5.00     18.10      0.01         0.01
  C68_1                      18.10     18.10     18.11      0.01         0.01
  C68_2                      18.11     18.11     18.11      0.01         0.02
  C69                        18.11     18.11     18.13      0.01         0.01
  C78                         1.82      1.82      1.87      0.01         0.21
  C84                         1.63      1.64      1.70      0.01         0.35
  C85                         1.63      1.63      1.64      0.01         0.20
  C86                         1.54      1.55      1.63      0.01         0.31
  C90_1                       5.06      5.06     18.07      0.01         0.01
  C90_2                      18.07     18.07     18.19      0.01         0.01
  

  Analysis begun on:  Sun Jun  8 22:49:52 2025
  Analysis ended on:  Sun Jun  8 22:49:55 2025
  Total elapsed time: 00:00:03