
  EPA STORM WATER MANAGEMENT MODEL - VERSION 5.2 (Build 5.2.4)
  PYSWMM TOOLKIT API - VERSION v1.0 (2024-04-17)
  ------------------------------------------------------------

  WARNING 04: minimum elevation drop used for Conduit C70_2
  WARNING 04: minimum elevation drop used for Conduit C85
  
  *************
  Element Count
  *************
  Number of rain gages ...... 1
  Number of subcatchments ... 39
  Number of nodes ........... 43
  Number of links ........... 42
  Number of pollutants ...... 0
  Number of land uses ....... 0
  
  
  ****************
  Raingage Summary
  ****************
                                                      Data       Recording
  Name                 Data Source                    Type       Interval 
  ------------------------------------------------------------------------
  rain_gage            rain_gage_timeseries           INTENSITY   15 min.
  
  
  ********************
  Subcatchment Summary
  ********************
  Name                       Area     Width   %Imperv    %Slope Rain Gage            Outlet              
  -----------------------------------------------------------------------------------------------------------
  Sub_1                      2.62    272.79     55.00    3.9580 rain_gage            J89                 
  Sub_10                     2.19    296.41     77.00    2.4860 rain_gage            J12                 
  Sub_11                     0.67    130.53     57.00    5.0240 rain_gage            J6                  
  Sub_12                     5.31    283.97     49.00    3.4940 rain_gage            J12                 
  Sub_13                     4.38    341.66     50.00    2.9930 rain_gage            J2                  
  Sub_14                    14.91    412.40     52.00    3.9710 rain_gage            J155                
  Sub_15                     3.68    325.75     59.00    4.8800 rain_gage            J96                 
  Sub_16                     2.81    372.64     48.00    3.5770 rain_gage            J32                 
  Sub_17                     4.94    458.98     41.00    4.7410 rain_gage            J30                 
  Sub_18                     1.52    250.00     79.00    2.3090 rain_gage            J8                  
  Sub_19                     2.15    372.00     78.00    3.4760 rain_gage            J121                
  Sub_2                      4.81    406.94     64.00    3.8880 rain_gage            J6                  
  Sub_20                    11.54    261.37     57.00    3.9380 rain_gage            J13                 
  Sub_21                     2.48    159.75     71.00    3.2870 rain_gage            J46                 
  Sub_22                     0.94    200.00     69.00    3.2890 rain_gage            J118                
  Sub_23                     2.95    250.00     63.00    3.6520 rain_gage            J103                
  Sub_24                     5.93    412.94     59.00    3.2030 rain_gage            J4                  
  Sub_25                     3.38    300.00     42.00    3.1260 rain_gage            J52                 
  Sub_26                     6.44    408.85     60.00    3.6440 rain_gage            J1                  
  Sub_27                     2.29    250.00     67.00    3.4680 rain_gage            J118                
  Sub_28                    10.61    229.01     71.00    3.1810 rain_gage            J43                 
  Sub_29                     4.46    300.00     76.00    3.1960 rain_gage            J7                  
  Sub_3                      2.79    466.00     72.00    3.7700 rain_gage            outfall             
  Sub_30                     2.64    390.64     74.00    3.0810 rain_gage            J57                 
  Sub_31                     2.90    292.33     72.00    2.7780 rain_gage            J156                
  Sub_32                     7.63    310.58     77.00    2.8180 rain_gage            J126                
  Sub_33                     3.19    461.41     83.00    3.0790 rain_gage            J63                 
  Sub_34                     2.29    250.00     65.00    2.6240 rain_gage            J5                  
  Sub_35                     2.76    217.64     70.00    2.8170 rain_gage            J3                  
  Sub_36                     1.43    235.88     50.00    2.2300 rain_gage            J70                 
  Sub_37                     1.87    251.70     78.00    3.2300 rain_gage            J71                 
  Sub_38                     4.37    354.85     73.00    3.2410 rain_gage            J23                 
  Sub_39                    11.94    244.72     56.00    2.9530 rain_gage            J147                
  Sub_4                      2.18    358.74     82.00    3.9740 rain_gage            J11                 
  Sub_5                      2.02    268.69     96.00    3.0480 rain_gage            J25                 
  Sub_6                      1.69    314.60     85.00    3.7140 rain_gage            J26                 
  Sub_7                      0.86    147.58     75.00    3.3650 rain_gage            J17                 
  Sub_8                      0.37     73.53     39.00    3.1440 rain_gage            J10                 
  Sub_9                      4.52    345.46     42.00    3.8900 rain_gage            J9                  


  *******************
  LID Control Summary
  *******************
                                   No. of        Unit        Unit      % Area    % Imperv      % Perv
  Subcatchment     LID Control      Units        Area       Width     Covered     Treated     Treated
  ---------------------------------------------------------------------------------------------------
  Sub_20           rain_garden        100      100.00        0.00        1.99        0.00       23.12
  Sub_20           rain_barrel        250        2.58        0.00        0.13       26.17        0.00
  
  
  ************
  Node Summary
  ************
                                           Invert      Max.    Ponded    External
  Name                 Type                 Elev.     Depth      Area    Inflow  
  -------------------------------------------------------------------------------
  J1                   JUNCTION             -6.11     11.75       0.0
  J10                  JUNCTION             -6.30     10.18       0.0
  J103                 JUNCTION             -6.19     10.56       0.0
  J104                 JUNCTION             -6.22     10.06       0.0
  J11                  JUNCTION              0.00      4.57       0.0
  J118                 JUNCTION             -6.18     12.12       0.0
  J12                  JUNCTION             -1.49      6.08       0.0
  J121                 JUNCTION             -1.01      9.50       0.0
  J126                 JUNCTION              2.71      5.20       0.0
  J13                  JUNCTION             -6.14     12.38       0.0
  J14                  JUNCTION             -6.30     10.18       0.0
  J147                 JUNCTION              2.00      4.84       0.0
  J151                 JUNCTION             -6.29     10.14       0.0
  J156                 JUNCTION              2.00      6.65       0.0
  J17                  JUNCTION             -2.21      6.73       0.0
  J18                  JUNCTION             -6.29     10.21       0.0
  J2                   JUNCTION             -0.37      7.68       0.0
  J23                  JUNCTION              1.98      4.73       0.0
  J25                  JUNCTION             -0.96      9.42       0.0
  J26                  JUNCTION             -1.44      7.94       0.0
  J27                  JUNCTION             -2.16      4.90       0.0
  J3                   JUNCTION             -0.57      9.12       0.0
  J30                  JUNCTION             -6.26      9.78       0.0
  J32                  JUNCTION             -6.23     10.58       0.0
  J4                   JUNCTION             -1.20      7.63       0.0
  J43                  JUNCTION             -1.70      8.65       0.0
  J44                  JUNCTION             -6.18     12.57       0.0
  J46                  JUNCTION             -6.16     11.43       0.0
  J5                   JUNCTION             -1.09      8.97       0.0
  J50                  JUNCTION             -6.15     11.76       0.0
  J52                  JUNCTION             -6.13     12.49       0.0
  J57                  JUNCTION             -1.59      8.82       0.0
  J6                   JUNCTION             -2.09      5.83       0.0
  J63                  JUNCTION              1.87      4.03       0.0
  J7                   JUNCTION             -0.42      6.53       0.0
  J70                  JUNCTION              2.00      7.06       0.0
  J71                  JUNCTION              1.80      7.50       0.0
  J8                   JUNCTION             -1.37      8.64       0.0
  J89                  JUNCTION             -1.00      6.26       0.0
  J9                   JUNCTION             -2.20      4.44       0.0
  J96                  JUNCTION             -1.97      5.15       0.0
  outfall              OUTFALL              -6.30     10.00       0.0
  J155                 STORAGE              -4.00      7.18       0.0
  
  
  ************
  Link Summary
  ************
  Name             From Node        To Node          Type            Length    %Slope Roughness
  ---------------------------------------------------------------------------------------------
  C103_1           J71              J3               CONDUIT          380.3    0.6233    0.0100
  C103_3           J3               J5               CONDUIT          261.0    0.2000    0.0100
  C103_4           J5               J57              CONDUIT          252.8    0.2000    0.0100
  C108             J70              J71              CONDUIT          121.0    0.1612    0.0100
  C110             J43              J44              CONDUIT          240.0    0.1667    0.0100
  C125_1           J57              J1               CONDUIT          257.8    0.9757    0.0100
  C125_2           J1               J52              CONDUIT          254.2    0.0100    0.0100
  C147             J7               J4               CONDUIT          393.0    0.2000    0.0100
  C147_2           J4               J57              CONDUIT          194.0    0.2000    0.0100
  C147_5           J63              J7               CONDUIT          273.4    0.8371    0.0100
  C15              J26              J17              CONDUIT          386.0    0.2000    0.0100
  C152             J23              J63              CONDUIT          346.2    0.0323    0.0100
  C152_1           J147             J23              CONDUIT           56.8    0.0317    0.0100
  C158             J17              J151             CONDUIT           40.0    0.2000    0.0100
  C159             J151             J10              CONDUIT           65.0    0.0100    0.0100
  C160             J18              J151             CONDUIT           65.0    0.0100    0.0100
  C167             J104             J32              CONDUIT           77.0    0.0100    0.0100
  C168             J155             J104             CONDUIT           15.0    6.6815    0.0100
  C174             J156             J71              CONDUIT          226.0    0.0863    0.0100
  C18_1            J52              J13              CONDUIT           24.9    0.0104    0.0100
  C18_2            J13              J50              CONDUIT          142.9    0.0104    0.0100
  C2               J50              J46              CONDUIT           71.3    0.0100    0.0100
  C26              J11              J14              CONDUIT          445.6    0.2917    0.0100
  C27              J2               J89              CONDUIT          314.9    0.2000    0.0100
  C38              J96              J32              CONDUIT          130.0    0.1938    0.0100
  C47              J25              J26              CONDUIT          241.0    0.2000    0.0100
  C57              J103             J104             CONDUIT          262.0    0.0100    0.0100
  C62              J32              J30              CONDUIT          305.9    0.0100    0.0100
  C64              J89              J12              CONDUIT          237.9    0.2039    0.0100
  C64_2            J12              J6               CONDUIT          303.5    0.2000    0.0100
  C68_1            J6               J27              CONDUIT           38.4    0.1808    0.0100
  C68_2            J27              J9               CONDUIT           19.2    0.1804    0.0100
  C69              J9               J10              CONDUIT           52.0    0.2000    0.0100
  C70_1            J10              J14              CONDUIT          279.9    0.0046    0.0100
  C70_2            J14              outfall          CONDUIT            5.5    0.0183    0.0100
  C78              J30              J18              CONDUIT          281.0    0.0100    0.0100
  C84              J118             J103             CONDUIT          163.0    0.0100    0.0100
  C85              J44              J118             CONDUIT            8.0    0.0125    0.0100
  C86              J46              J44              CONDUIT          189.0    0.0100    0.0100
  C90_1            J121             J8               CONDUIT          179.1    0.2000    0.0100
  C90_2            J8               J32              CONDUIT          429.7    0.2000    0.0100
  C96              J126             J63              CONDUIT          582.0    0.1436    0.0100
  
  
  *********************
  Cross Section Summary
  *********************
                                        Full     Full     Hyd.     Max.   No. of     Full
  Conduit          Shape               Depth     Area     Rad.    Width  Barrels     Flow
  ---------------------------------------------------------------------------------------
  C103_1           CIRCULAR             1.50     1.77     0.38     1.50        1    10.78
  C103_3           CIRCULAR             1.50     1.77     0.38     1.50        1     6.11
  C103_4           CIRCULAR             1.50     1.77     0.38     1.50        1     6.11
  C108             CIRCULAR             1.25     1.23     0.31     1.25        1     3.37
  C110             CIRCULAR             1.50     1.77     0.38     1.50        1     5.57
  C125_1           CIRCULAR             3.00     7.07     0.75     3.00        1    85.65
  C125_2           RECT_CLOSED          8.00    40.00     1.54     5.00        1    79.21
  C147             CIRCULAR             2.00     3.14     0.50     2.00        1    13.15
  C147_2           CIRCULAR             2.00     3.14     0.50     2.00        1    13.15
  C147_5           CIRCULAR             2.01     3.16     0.50     2.01        1    27.16
  C15              CIRCULAR             1.75     2.41     0.44     1.75        1     9.21
  C152             CIRCULAR             1.26     1.24     0.31     1.26        1     1.53
  C152_1           CIRCULAR             1.26     1.24     0.31     1.26        1     1.51
  C158             CIRCULAR             1.75     2.41     0.44     1.75        1     9.21
  C159             RECT_CLOSED          8.00    40.00     1.54     5.00        1    79.21
  C160             RECT_CLOSED          8.00    40.00     1.54     5.00        1    79.21
  C167             RECT_CLOSED          8.00    40.00     1.54     5.00        1    79.21
  C168             CIRCULAR             2.00     3.14     0.50     2.00        1    76.02
  C174             CIRCULAR             1.00     0.79     0.25     1.00        1     1.36
  C18_1            RECT_CLOSED          8.00    40.00     1.54     5.00        1    80.82
  C18_2            RECT_CLOSED          8.00    40.00     1.54     5.00        1    80.92
  C2               RECT_CLOSED          8.00    40.00     1.54     5.00        1    79.21
  C26              CIRCULAR             1.00     0.79     0.25     1.00        1     2.50
  C27              CIRCULAR             1.25     1.23     0.31     1.25        1     3.76
  C38              CIRCULAR             1.50     1.77     0.38     1.50        1     6.01
  C47              CIRCULAR             1.75     2.41     0.44     1.75        1     9.21
  C57              RECT_CLOSED          8.00    40.00     1.54     5.00        1    79.21
  C62              RECT_CLOSED          8.00    40.00     1.54     5.00        1    79.21
  C64              CIRCULAR             2.00     3.14     0.50     2.00        1    13.28
  C64_2            CIRCULAR             2.00     3.14     0.50     2.00        1    13.15
  C68_1            CIRCULAR             2.00     3.14     0.50     2.00        1    12.51
  C68_2            CIRCULAR             2.00     3.14     0.50     2.00        1    12.49
  C69              CIRCULAR             2.00     3.14     0.50     2.00        1    13.15
  C70_1            RECT_CLOSED         10.00    50.00     1.67     5.00        1    70.50
  C70_2            RECT_CLOSED         10.00    50.00     1.67     5.00        1   141.22
  C78              RECT_CLOSED          8.00    40.00     1.54     5.00        1    79.21
  C84              RECT_CLOSED          8.00    40.00     1.54     5.00        1    79.21
  C85              RECT_CLOSED          8.00    40.00     1.54     5.00        1    88.56
  C86              RECT_CLOSED          8.00    40.00     1.54     5.00        1    79.21
  C90_1            RECT_CLOSED          1.50     1.36     0.28     0.91        1     3.91
  C90_2            RECT_CLOSED          1.50     1.36     0.28     0.91        1     3.91
  C96              CIRCULAR             1.25     1.23     0.31     1.25        1     3.18
  
  
  ****************
  Analysis Options
  ****************
  Flow Units ............... CFS
  Process Models:
    Rainfall/Runoff ........ YES
    RDII ................... NO
    Snowmelt ............... NO
    Groundwater ............ NO
    Flow Routing ........... YES
    Ponding Allowed ........ NO
    Water Quality .......... NO
  Infiltration Method ...... GREEN_AMPT
  Flow Routing Method ...... DYNWAVE
  Surcharge Method ......... EXTRAN
  Starting Date ............ 05/31/2025 12:00:00
  Ending Date .............. 06/02/2025 12:00:00
  Antecedent Dry Days ...... 0.0
  Report Time Step ......... 00:05:00
  Wet Time Step ............ 00:05:00
  Dry Time Step ............ 00:05:00
  Routing Time Step ........ 5.00 sec
  Variable Time Step ....... YES
  Maximum Trials ........... 8
  Number of Threads ........ 2
  Head Tolerance ........... 0.005000 ft
  
  
  *********************
  Control Actions Taken
  *********************

  
  **************************        Volume         Depth
  Runoff Quantity Continuity     acre-feet        inches
  **************************     ---------       -------
  Initial LID Storage ......         0.046         0.004
  Total Precipitation ......        18.188         1.395
  Evaporation Loss .........         0.000         0.000
  Infiltration Loss ........         8.986         0.689
  Surface Runoff ...........         8.823         0.677
  Final Storage ............         0.433         0.033
  Continuity Error (%) .....        -0.043
  
  
  **************************        Volume        Volume
  Flow Routing Continuity        acre-feet      10^6 gal
  **************************     ---------     ---------
  Dry Weather Inflow .......         0.000         0.000
  Wet Weather Inflow .......         8.823         2.875
  Groundwater Inflow .......         0.000         0.000
  RDII Inflow ..............         0.000         0.000
  External Inflow ..........         0.000         0.000
  External Outflow .........         5.431         1.770
  Flooding Loss ............         0.000         0.000
  Evaporation Loss .........         0.000         0.000
  Exfiltration Loss ........         0.000         0.000
  Initial Stored Volume ....         1.620         0.528
  Final Stored Volume ......         5.005         1.631
  Continuity Error (%) .....         0.065
  
  
  *************************
  Highest Continuity Errors
  *************************
  Node J30 (4.16%)
  Node J1 (2.77%)
  Node J103 (2.67%)
  Node J32 (2.59%)
  Node J8 (2.54%)
  
  
  ***************************
  Time-Step Critical Elements
  ***************************
  Link C70_2 (34.85%)
  Link C85 (16.12%)
  Link C168 (8.36%)
  Link C68_2 (1.11%)
  
  
  ********************************
  Highest Flow Instability Indexes
  ********************************
  Link C68_2 (22)
  Link C85 (21)
  Link C84 (18)
  Link C86 (15)
  Link C2 (13)
  
  
  *********************************
  Most Frequent Nonconverging Nodes
  *********************************
  Node outfall (6.32%)
  Node J118 (5.17%)
  Node J44 (0.86%)
  Node J8 (0.26%)
  Node J26 (0.26%)
  
  
  *************************
  Routing Time Step Summary
  *************************
  Minimum Time Step           :     0.12 sec
  Average Time Step           :     2.55 sec
  Maximum Time Step           :     5.00 sec
  % of Time in Steady State   :     0.00
  Average Iterations per Step :     3.13
  % of Steps Not Converging   :     6.32
  Time Step Frequencies       :
      5.000 -  3.155 sec      :    42.63 %
      3.155 -  1.991 sec      :     5.35 %
      1.991 -  1.256 sec      :     2.30 %
      1.256 -  0.792 sec      :     1.75 %
      0.792 -  0.500 sec      :    47.98 %
  
  
  ***************************
  Subcatchment Runoff Summary
  ***************************
  
  ------------------------------------------------------------------------------------------------------------------------------
                            Total      Total      Total      Total     Imperv       Perv      Total       Total     Peak  Runoff
                           Precip      Runon       Evap      Infil     Runoff     Runoff     Runoff      Runoff   Runoff   Coeff
  Subcatchment                 in         in         in         in         in         in         in    10^6 gal      CFS
  ------------------------------------------------------------------------------------------------------------------------------
  Sub_1                      1.39       0.00       0.00       0.84       0.75       0.02       0.54        0.04     0.59   0.386
  Sub_10                     1.39       0.00       0.00       0.30       1.05       0.33       1.06        0.06     1.13   0.763
  Sub_11                     1.39       0.00       0.00       0.81       0.77       0.03       0.57        0.01     0.17   0.407
  Sub_12                     1.40       0.00       0.00       0.91       0.67       0.00       0.47        0.07     1.06   0.335
  Sub_13                     1.40       0.00       0.00       0.90       0.68       0.00       0.48        0.06     0.89   0.342
  Sub_14                     1.39       0.00       0.00       0.88       0.71       0.00       0.50        0.20     3.15   0.357
  Sub_15                     1.40       0.00       0.00       0.78       0.80       0.03       0.59        0.06     0.96   0.425
  Sub_16                     1.40       0.00       0.00       0.64       0.65       0.28       0.74        0.06     1.14   0.531
  Sub_17                     1.39       0.00       0.00       0.99       0.56       0.00       0.39        0.05     0.83   0.280
  Sub_18                     1.39       0.00       0.00       0.45       1.07       0.16       0.91        0.04     0.69   0.655
  Sub_19                     1.40       0.00       0.00       0.47       1.06       0.16       0.90        0.05     0.97   0.644
  Sub_2                      1.39       0.00       0.00       0.46       0.87       0.30       0.91        0.12     2.24   0.654
  Sub_20                     1.39       0.00       0.00       0.85       0.76       0.06       0.44        0.14     2.13   0.312
  Sub_21                     1.40       0.00       0.00       0.60       0.96       0.09       0.77        0.05     0.90   0.550
  Sub_22                     1.39       0.00       0.00       0.39       0.94       0.32       0.98        0.03     0.46   0.701
  Sub_23                     1.40       0.00       0.00       0.73       0.86       0.05       0.65        0.05     0.86   0.463
  Sub_24                     1.40       0.00       0.00       0.79       0.80       0.03       0.59        0.09     1.49   0.421
  Sub_25                     1.40       0.00       0.00       0.72       0.57       0.26       0.66        0.06     1.21   0.475
  Sub_26                     1.39       0.00       0.00       0.77       0.81       0.03       0.60        0.11     1.67   0.431
  Sub_27                     1.39       0.00       0.00       0.66       0.91       0.07       0.71        0.04     0.78   0.509
  Sub_28                     1.40       0.00       0.00       0.62       0.96       0.07       0.75        0.21     3.43   0.534
  Sub_29                     1.39       0.00       0.00       0.51       1.03       0.13       0.85        0.10     1.85   0.612
  Sub_3                      1.39       0.00       0.00       0.36       0.98       0.33       1.01        0.08     1.40   0.724
  Sub_30                     1.40       0.00       0.00       0.54       1.01       0.12       0.83        0.06     1.10   0.593
  Sub_31                     1.39       0.00       0.00       0.58       0.98       0.10       0.79        0.06     1.11   0.566
  Sub_32                     1.40       0.00       0.00       0.51       1.05       0.13       0.86        0.18     3.09   0.617
  Sub_33                     1.39       0.00       0.00       0.38       1.13       0.20       0.99        0.09     1.55   0.708
  Sub_34                     1.40       0.00       0.00       0.69       0.88       0.06       0.68        0.04     0.72   0.485
  Sub_35                     1.39       0.00       0.00       0.62       0.95       0.09       0.75        0.06     0.99   0.540
  Sub_36                     1.40       0.00       0.00       0.90       0.68       0.00       0.48        0.02     0.29   0.342
  Sub_37                     1.40       0.00       0.00       0.47       1.06       0.15       0.90        0.05     0.84   0.642
  Sub_38                     1.40       0.00       0.00       0.56       0.99       0.11       0.80        0.10     1.70   0.577
  Sub_39                     1.40       0.00       0.00       0.83       0.76       0.01       0.54        0.18     2.71   0.387
  Sub_4                      1.40       0.00       0.00       0.40       1.11       0.19       0.97        0.06     1.04   0.693
  Sub_5                      1.40       0.00       0.00       0.11       1.30       0.34       1.25        0.07     1.13   0.898
  Sub_6                      1.40       0.00       0.00       0.34       1.15       0.22       1.02        0.05     0.84   0.734
  Sub_7                      1.40       0.00       0.00       0.52       1.02       0.13       0.85        0.02     0.37   0.607
  Sub_8                      1.40       0.00       0.00       1.01       0.53       0.00       0.37        0.00     0.06   0.266
  Sub_9                      1.39       0.00       0.00       0.72       0.57       0.26       0.66        0.08     1.61   0.474
  

  ***********************
  LID Performance Summary
  ***********************

  --------------------------------------------------------------------------------------------------------------------
                                         Total      Evap     Infil   Surface    Drain    Initial     Final  Continuity
                                        Inflow      Loss      Loss   Outflow   Outflow   Storage   Storage       Error
  Subcatchment      LID Control             in        in        in        in        in        in        in           %
  --------------------------------------------------------------------------------------------------------------------
  Sub_20            rain_garden           2.06      0.00      0.00      0.00      0.00      2.40      4.46       -0.04
  Sub_20            rain_barrel         108.18      0.00      0.00     73.93      0.00      0.00     34.25        0.00
  
  ******************
  Node Depth Summary
  ******************
  
  ---------------------------------------------------------------------------------
                                 Average  Maximum  Maximum  Time of Max    Reported
                                   Depth    Depth      HGL   Occurrence   Max Depth
  Node                 Type         Feet     Feet     Feet  days hr:min        Feet
  ---------------------------------------------------------------------------------
  J1                   JUNCTION     4.82     7.42     1.31     0  18:44        7.42
  J10                  JUNCTION     4.97     7.51     1.21     0  17:56        7.51
  J103                 JUNCTION     4.89     7.46     1.26     0  18:43        7.43
  J104                 JUNCTION     4.91     7.50     1.28     0  18:43        7.43
  J11                  JUNCTION     0.35     4.57     4.57     0  17:42        1.42
  J118                 JUNCTION     4.87     7.44     1.26     0  18:44        7.42
  J12                  JUNCTION     1.21     6.08     4.59     0  17:39        2.79
  J121                 JUNCTION     0.85     5.44     4.43     0  17:40        2.39
  J126                 JUNCTION     0.27     1.02     3.72     0  18:30        1.02
  J13                  JUNCTION     4.84     7.42     1.28     0  18:45        7.42
  J14                  JUNCTION     4.97     7.50     1.20     0  18:00        7.50
  J147                 JUNCTION     0.48     1.82     3.82     0  18:15        1.82
  J151                 JUNCTION     4.97     7.51     1.22     0  18:44        7.51
  J156                 JUNCTION     0.18     0.65     2.65     0  18:15        0.65
  J17                  JUNCTION     1.74     3.56     1.34     0  17:42        3.43
  J18                  JUNCTION     4.96     7.51     1.22     0  18:44        7.49
  J2                   JUNCTION     0.49     5.66     5.29     0  17:42        1.72
  J23                  JUNCTION     0.48     1.78     3.76     0  18:15        1.78
  J25                  JUNCTION     0.80     9.42     8.46     0  17:41        2.22
  J26                  JUNCTION     1.16     7.94     6.50     0  17:38        2.69
  J27                  JUNCTION     1.72     3.62     1.46     0  17:45        3.40
  J3                   JUNCTION     0.63     8.17     7.60     0  17:41        2.22
  J30                  JUNCTION     4.94     7.50     1.25     0  18:43        7.47
  J32                  JUNCTION     4.91     7.51     1.28     0  18:43        7.44
  J4                   JUNCTION     1.08     6.52     5.31     0  18:59        2.89
  J43                  JUNCTION     1.39     3.10     1.40     0  18:44        3.08
  J44                  JUNCTION     4.87     7.44     1.26     0  18:45        7.42
  J46                  JUNCTION     4.86     7.44     1.28     0  18:45        7.41
  J5                   JUNCTION     0.95     8.97     7.88     0  17:38        2.64
  J50                  JUNCTION     4.85     7.43     1.28     0  18:45        7.41
  J52                  JUNCTION     4.84     7.42     1.28     0  18:45        7.42
  J57                  JUNCTION     1.30     3.12     1.53     0  18:45        2.98
  J6                   JUNCTION     1.67     3.75     1.65     0  17:45        3.35
  J63                  JUNCTION     0.24     0.79     2.66     0  18:15        0.79
  J7                   JUNCTION     0.67     3.89     3.47     0  18:50        2.59
  J70                  JUNCTION     0.08     0.29     2.29     0  18:15        0.29
  J71                  JUNCTION     0.13     0.46     2.27     0  18:15        0.46
  J8                   JUNCTION     1.12     8.64     7.27     0  17:38        2.72
  J89                  JUNCTION     0.84     5.61     4.61     0  17:45        2.32
  J9                   JUNCTION     1.75     3.56     1.36     0  17:45        3.43
  J96                  JUNCTION     1.55     3.26     1.29     0  18:43        3.19
  outfall              OUTFALL      6.74     7.50     1.20     0  18:00        7.50
  J155                 STORAGE      3.60     5.18     1.18     0  18:48        5.16
  
  
  *******************
  Node Inflow Summary
  *******************
  
  -------------------------------------------------------------------------------------------------
                                  Maximum  Maximum                  Lateral       Total        Flow
                                  Lateral    Total  Time of Max      Inflow      Inflow     Balance
                                   Inflow   Inflow   Occurrence      Volume      Volume       Error
  Node                 Type           CFS      CFS  days hr:min    10^6 gal    10^6 gal     Percent
  -------------------------------------------------------------------------------------------------
  J1                   JUNCTION      1.67    18.89     0  18:15       0.105        1.15       2.848
  J10                  JUNCTION      0.06    58.75     0  18:53     0.00371         1.8       2.015
  J103                 JUNCTION      0.86    34.22     0  18:46      0.0516        1.61       2.747
  J104                 JUNCTION      0.00    46.75     0  18:51           0        2.28       1.541
  J11                  JUNCTION      1.04     1.04     0  18:15      0.0571      0.0571       0.519
  J118                 JUNCTION      1.22    32.84     0  18:46      0.0693        1.88       0.466
  J12                  JUNCTION      2.19     3.71     0  17:49       0.131       0.233       0.813
  J121                 JUNCTION      0.97     0.98     0  17:37      0.0525      0.0544       0.228
  J126                 JUNCTION      3.09     3.09     0  18:30       0.178       0.178      -0.003
  J13                  JUNCTION      2.13    23.29     0  18:47       0.136        1.29       1.310
  J14                  JUNCTION      0.00    59.88     0  18:53           0        1.74       1.736
  J147                 JUNCTION      2.71     2.71     0  18:15       0.175       0.175      -0.000
  J151                 JUNCTION      0.00    53.13     0  18:53           0         1.5       0.918
  J156                 JUNCTION      1.11     1.11     0  18:15      0.0622      0.0622      -0.001
  J17                  JUNCTION      0.37     2.46     0  17:39      0.0197       0.153       2.260
  J18                  JUNCTION      0.00    51.40     0  18:53           0         1.4       2.597
  J2                   JUNCTION      0.89     0.89     0  18:15      0.0568      0.0572      -0.077
  J23                  JUNCTION      1.70     4.41     0  18:15      0.0954       0.271       0.002
  J25                  JUNCTION      1.13     1.50     0  17:37      0.0685      0.0728       0.034
  J26                  JUNCTION      0.84     2.29     0  17:39      0.0469       0.126       1.635
  J27                  JUNCTION      0.00     6.07     0  18:14           0        0.36      -0.085
  J3                   JUNCTION      0.99     3.19     0  18:15      0.0565       0.185      -0.021
  J30                  JUNCTION      0.83    49.60     0  18:53      0.0523        1.44       4.337
  J32                  JUNCTION      1.14    50.03     0  18:51      0.0565        1.59       2.661
  J4                   JUNCTION      1.49    12.26     0  18:15      0.0946       0.737       0.176
  J43                  JUNCTION      3.43     3.43     0  18:30       0.215       0.216       0.748
  J44                  JUNCTION      0.00    31.05     0  18:46           0        1.83       1.676
  J46                  JUNCTION      0.90    26.21     0  18:46      0.0516        1.31       2.047
  J5                   JUNCTION      0.72     3.88     0  18:30       0.042       0.232       0.215
  J50                  JUNCTION      0.00    24.06     0  18:46           0        1.28       1.701
  J52                  JUNCTION      1.21    20.48     0  18:47      0.0607        1.18       2.408
  J57                  JUNCTION      1.10    17.23     0  18:15      0.0592        1.03       0.409
  J6                   JUNCTION      2.39     6.07     0  18:14       0.129       0.361       0.794
  J63                  JUNCTION      1.55     8.98     0  18:15      0.0856       0.535      -0.013
  J7                   JUNCTION      1.85    10.81     0  18:15       0.103       0.638      -0.029
  J70                  JUNCTION      0.29     0.29     0  18:15      0.0185      0.0185      -0.013
  J71                  JUNCTION      0.84     2.24     0  18:15      0.0456       0.126      -0.074
  J8                   JUNCTION      0.69     1.66     0  18:15      0.0376      0.0954       2.603
  J89                  JUNCTION      0.59     1.95     0  17:33      0.0382      0.0996       0.287
  J9                   JUNCTION      1.61     7.61     0  18:14       0.081       0.442       0.354
  J96                  JUNCTION      0.96     0.96     0  18:30      0.0593      0.0656       1.213
  outfall              OUTFALL       1.40    60.90     0  18:53      0.0767        1.77       0.000
  J155                 STORAGE       3.15    38.10     0  17:55       0.202        1.66      -0.005
  
  
  **********************
  Node Surcharge Summary
  **********************
  
  Surcharging occurs when water rises above the top of the highest conduit.
  ---------------------------------------------------------------------
                                               Max. Height   Min. Depth
                                   Hours       Above Crown    Below Rim
  Node                 Type      Surcharged           Feet         Feet
  ---------------------------------------------------------------------
  J11                  JUNCTION        1.61          3.566        0.000
  J12                  JUNCTION        2.72          4.079        0.000
  J121                 JUNCTION        2.77          3.944        4.052
  J147                 JUNCTION        1.51          0.561        3.028
  J17                  JUNCTION        4.87          1.808        3.175
  J2                   JUNCTION        1.89          4.406        2.028
  J23                  JUNCTION        1.49          0.522        2.951
  J25                  JUNCTION        2.10          7.668        0.000
  J26                  JUNCTION        3.13          6.190        0.000
  J27                  JUNCTION        4.14          1.618        1.285
  J3                   JUNCTION        1.82          6.666        0.955
  J4                   JUNCTION        2.11          4.518        1.109
  J43                  JUNCTION        4.20          1.598        5.552
  J5                   JUNCTION        2.92          7.466        0.000
  J57                  JUNCTION        0.01          0.123        5.693
  J6                   JUNCTION        4.00          1.745        2.089
  J7                   JUNCTION        1.20          1.886        2.639
  J8                   JUNCTION        3.52          7.137        0.000
  J89                  JUNCTION        1.54          3.612        0.649
  J9                   JUNCTION        4.19          1.559        0.881
  J96                  JUNCTION        4.87          1.756        1.897
  
  
  *********************
  Node Flooding Summary
  *********************
  
  Flooding refers to all water that overflows a node, whether it ponds or not.
  --------------------------------------------------------------------------
                                                             Total   Maximum
                                 Maximum   Time of Max       Flood    Ponded
                        Hours       Rate    Occurrence      Volume     Depth
  Node                 Flooded       CFS   days hr:min    10^6 gal      Feet
  --------------------------------------------------------------------------
  J11                     0.01      0.34      0  17:42       0.000     0.000
  J12                     0.01      1.30      0  17:39       0.000     0.000
  J25                     0.01      0.58      0  17:41       0.000     0.000
  J26                     0.01      0.64      0  17:38       0.000     0.000
  J5                      0.01      1.06      0  17:38       0.000     0.000
  J8                      0.01      0.91      0  20:29       0.000     0.000
  
  
  **********************
  Storage Volume Summary
  **********************
  
  ------------------------------------------------------------------------------------------------
                         Average    Avg   Evap  Exfil     Maximum    Max    Time of Max    Maximum
                          Volume   Pcnt   Pcnt   Pcnt      Volume   Pcnt     Occurrence    Outflow
  Storage Unit          1000 ft³   Full   Loss   Loss    1000 ft³   Full    days hr:min        CFS
  ------------------------------------------------------------------------------------------------
  J155                   137.692   43.7    0.0    0.0     209.150   66.4       0  18:48      18.48
  
  
  ***********************
  Outfall Loading Summary
  ***********************
  
  -----------------------------------------------------------
                         Flow       Avg       Max       Total
                         Freq      Flow      Flow      Volume
  Outfall Node           Pcnt       CFS       CFS    10^6 gal
  -----------------------------------------------------------
  outfall               57.09     11.32     60.90       1.770
  -----------------------------------------------------------
  System                57.09     11.32     60.90       1.770
  
  
  ********************
  Link Flow Summary
  ********************
  
  -----------------------------------------------------------------------------
                                 Maximum  Time of Max   Maximum    Max/    Max/
                                  |Flow|   Occurrence   |Veloc|    Full    Full
  Link                 Type          CFS  days hr:min    ft/sec    Flow   Depth
  -----------------------------------------------------------------------------
  C103_1               CONDUIT      2.23     0  18:15      2.97    0.21    0.65
  C103_3               CONDUIT      3.19     0  18:15      2.88    0.52    1.00
  C103_4               CONDUIT      3.88     0  18:30      3.10    0.64    1.00
  C108                 CONDUIT      0.29     0  18:13      1.12    0.09    0.30
  C110                 CONDUIT      3.43     0  18:30      3.25    0.62    1.00
  C125_1               CONDUIT     17.28     0  18:15      7.48    0.20    1.00
  C125_2               CONDUIT     19.42     0  18:47      1.09    0.25    0.93
  C147                 CONDUIT     10.81     0  18:15      4.27    0.82    1.00
  C147_2               CONDUIT     12.26     0  18:15      6.08    0.93    1.00
  C147_5               CONDUIT      8.97     0  18:15      4.92    0.33    0.70
  C15                  CONDUIT      2.22     0  17:39      2.61    0.24    1.00
  C152                 CONDUIT      4.41     0  18:15      4.07    2.88    0.82
  C152_1               CONDUIT      2.71     0  18:15      2.19    1.79    1.00
  C158                 CONDUIT      2.46     0  17:39      3.01    0.27    1.00
  C159                 CONDUIT     53.10     0  18:53      1.43    0.67    0.94
  C160                 CONDUIT     51.53     0  18:53      1.39    0.65    0.94
  C167                 CONDUIT     47.27     0  18:51      1.28    0.60    0.94
  C168                 CONDUIT     35.00     0  17:55     14.08    0.46    0.79
  C174                 CONDUIT      1.11     0  18:15      2.48    0.81    0.56
  C18_1                CONDUIT     21.25     0  18:47      1.02    0.26    0.93
  C18_2                CONDUIT     24.06     0  18:46      1.08    0.30    0.93
  C2                   CONDUIT     25.43     0  18:46      0.97    0.32    0.93
  C26                  CONDUIT      1.04     0  18:15      2.65    0.41    1.00
  C27                  CONDUIT      0.95     0  17:41      2.24    0.25    1.00
  C38                  CONDUIT      0.96     0  18:30      2.43    0.16    1.00
  C47                  CONDUIT      1.58     0  17:39      2.05    0.17    1.00
  C57                  CONDUIT     33.90     0  18:46      0.92    0.43    0.93
  C62                  CONDUIT     49.04     0  18:53      1.33    0.62    0.94
  C64                  CONDUIT      1.67     0  17:44      1.87    0.13    1.00
  C64_2                CONDUIT      3.71     0  17:49      2.79    0.28    1.00
  C68_1                CONDUIT      6.07     0  18:14      3.43    0.48    1.00
  C68_2                CONDUIT      6.06     0  18:14      3.42    0.49    1.00
  C69                  CONDUIT      7.61     0  18:14      4.06    0.58    1.00
  C70_1                CONDUIT     59.19     0  18:53      1.60    0.84    0.75
  C70_2                CONDUIT     59.95     0  18:53      1.62    0.42    0.75
  C78                  CONDUIT     51.40     0  18:53      1.39    0.65    0.94
  C84                  CONDUIT     33.45     0  18:46      0.93    0.42    0.93
  C85                  CONDUIT     31.82     0  18:46      0.93    0.36    0.93
  C86                  CONDUIT     27.85     0  18:46      0.88    0.35    0.93
  C90_1                CONDUIT      1.07     0  17:38      1.70    0.27    1.00
  C90_2                CONDUIT      1.66     0  18:15      2.57    0.43    1.00
  C96                  CONDUIT      3.09     0  18:30      3.25    0.97    0.72
  
  
  ***************************
  Flow Classification Summary
  ***************************
  
  -------------------------------------------------------------------------------------
                      Adjusted    ---------- Fraction of Time in Flow Class ---------- 
                       /Actual         Up    Down  Sub   Sup   Up    Down  Norm  Inlet 
  Conduit               Length    Dry  Dry   Dry   Crit  Crit  Crit  Crit  Ltd   Ctrl  
  -------------------------------------------------------------------------------------
  C103_1                  1.00   0.31  0.00  0.00  0.69  0.00  0.00  0.00  0.64  0.00
  C103_3                  1.00   0.31  0.00  0.00  0.69  0.00  0.00  0.00  0.58  0.00
  C103_4                  1.00   0.31  0.00  0.00  0.69  0.00  0.00  0.00  0.02  0.00
  C108                    1.00   0.31  0.00  0.00  0.69  0.00  0.00  0.00  0.44  0.00
  C110                    1.00   0.31  0.00  0.00  0.64  0.00  0.00  0.05  0.00  0.00
  C125_1                  1.00   0.31  0.00  0.00  0.64  0.00  0.00  0.04  0.01  0.00
  C125_2                  1.00   0.31  0.00  0.00  0.69  0.00  0.00  0.00  0.00  0.00
  C147                    1.00   0.31  0.00  0.00  0.69  0.00  0.00  0.00  0.58  0.00
  C147_2                  1.00   0.31  0.00  0.00  0.66  0.03  0.00  0.00  0.00  0.00
  C147_5                  1.00   0.31  0.00  0.00  0.66  0.03  0.00  0.00  0.69  0.00
  C15                     1.00   0.31  0.00  0.00  0.69  0.00  0.00  0.00  0.05  0.00
  C152                    1.00   0.31  0.00  0.00  0.69  0.00  0.00  0.00  0.00  0.00
  C152_1                  1.00   0.31  0.00  0.00  0.69  0.00  0.00  0.00  0.36  0.00
  C158                    1.00   0.31  0.00  0.00  0.64  0.00  0.00  0.05  0.00  0.00
  C159                    1.00   0.31  0.00  0.00  0.68  0.00  0.00  0.00  0.00  0.00
  C160                    1.00   0.32  0.01  0.00  0.68  0.00  0.00  0.00  0.00  0.00
  C167                    1.00   0.31  0.01  0.00  0.67  0.00  0.00  0.00  0.00  0.00
  C168                    1.00   0.36  0.00  0.00  0.58  0.03  0.02  0.00  0.57  0.00
  C174                    1.00   0.31  0.00  0.00  0.69  0.00  0.00  0.00  0.02  0.00
  C18_1                   1.00   0.31  0.00  0.00  0.69  0.00  0.00  0.00  0.01  0.00
  C18_2                   1.00   0.31  0.00  0.00  0.69  0.00  0.00  0.00  0.00  0.00
  C2                      1.00   0.31  0.01  0.00  0.68  0.00  0.00  0.00  0.01  0.00
  C26                     1.00   0.31  0.02  0.00  0.61  0.00  0.00  0.05  0.56  0.00
  C27                     1.00   0.31  0.00  0.00  0.69  0.00  0.00  0.00  0.58  0.00
  C38                     1.00   0.31  0.00  0.00  0.64  0.00  0.00  0.05  0.00  0.00
  C47                     1.00   0.31  0.00  0.00  0.69  0.00  0.00  0.00  0.05  0.00
  C57                     1.00   0.31  0.00  0.00  0.69  0.00  0.00  0.00  0.00  0.00
  C62                     1.00   0.31  0.00  0.00  0.69  0.00  0.00  0.00  0.00  0.00
  C64                     1.00   0.31  0.00  0.00  0.69  0.00  0.00  0.00  0.05  0.00
  C64_2                   1.00   0.31  0.00  0.00  0.69  0.00  0.00  0.00  0.05  0.00
  C68_1                   1.00   0.31  0.00  0.00  0.69  0.00  0.00  0.00  0.00  0.00
  C68_2                   1.00   0.31  0.00  0.00  0.69  0.00  0.00  0.00  0.02  0.00
  C69                     1.00   0.31  0.00  0.00  0.64  0.00  0.00  0.05  0.00  0.00
  C70_1                   1.00   0.31  0.01  0.00  0.68  0.00  0.00  0.00  0.00  0.00
  C70_2                   1.00   0.00  0.00  0.00  1.00  0.00  0.00  0.00  0.00  0.00
  C78                     1.00   0.31  0.00  0.00  0.69  0.00  0.00  0.00  0.00  0.00
  C84                     1.00   0.31  0.00  0.00  0.69  0.00  0.00  0.00  0.00  0.00
  C85                     1.00   0.31  0.01  0.00  0.68  0.00  0.00  0.00  0.00  0.00
  C86                     1.00   0.31  0.00  0.00  0.69  0.00  0.00  0.00  0.01  0.00
  C90_1                   1.00   0.31  0.00  0.00  0.69  0.00  0.00  0.00  0.03  0.00
  C90_2                   1.00   0.31  0.00  0.00  0.64  0.00  0.00  0.05  0.00  0.00
  C96                     1.00   0.31  0.00  0.00  0.69  0.00  0.00  0.00  0.08  0.00
  
  
  *************************
  Conduit Surcharge Summary
  *************************
  
  ----------------------------------------------------------------------------
                                                           Hours        Hours 
                         --------- Hours Full --------   Above Full   Capacity
  Conduit                Both Ends  Upstream  Dnstream   Normal Flow   Limited
  ----------------------------------------------------------------------------
  C103_1                      0.01      0.01      1.82      0.01         0.01
  C103_3                      1.82      1.82      2.92      0.01         0.01
  C103_4                      2.92      2.92      3.93      0.01         0.01
  C110                        4.20      4.20      5.24      0.01         0.01
  C125_1                      0.01      0.01     30.56      0.01         0.01
  C147                        1.22      1.22      2.11      0.01         0.01
  C147_2                      2.11      2.11      2.95      0.01         0.01
  C147_5                      0.01      0.01      1.20      0.01         0.01
  C15                         3.13      3.13      4.87      0.01         0.01
  C152                        0.01      1.49      0.01      2.66         0.01
  C152_1                      1.49      1.51      1.49      2.12         1.49
  C158                        4.87      4.87      5.10      0.01         0.01
  C168                        0.01      0.01      1.50      0.01         0.01
  C26                         1.61      1.61      4.45      0.01         0.01
  C27                         1.89      1.89      3.27      0.01         0.01
  C38                         4.87      4.87     14.36      0.01         0.01
  C47                         2.10      2.10      3.13      0.01         0.01
  C64                         1.54      1.54      2.72      0.01         0.01
  C64_2                       2.72      2.72      4.00      0.01         0.01
  C68_1                       4.00      4.00      4.14      0.01         0.01
  C68_2                       4.14      4.14      4.20      0.01         0.01
  C69                         4.20      4.20      4.43      0.01         0.01
  C90_1                       2.77      2.77      3.52      0.01         0.01
  C90_2                       3.52      3.52     14.92      0.01         0.01
  

  Analysis begun on:  Tue Jun 17 02:27:25 2025
  Analysis ended on:  Tue Jun 17 02:27:27 2025
  Total elapsed time: 00:00:02