
  EPA STORM WATER MANAGEMENT MODEL - VERSION 5.2 (Build 5.2.4)
  PYSWMM TOOLKIT API - VERSION v1.0 (2024-04-17)
  ------------------------------------------------------------

  WARNING 04: minimum elevation drop used for Conduit C70_2
  WARNING 04: minimum elevation drop used for Conduit C85
  
  *************
  Element Count
  *************
  Number of rain gages ...... 1
  Number of subcatchments ... 39
  Number of nodes ........... 43
  Number of links ........... 42
  Number of pollutants ...... 0
  Number of land uses ....... 0
  
  
  ****************
  Raingage Summary
  ****************
                                                      Data       Recording
  Name                 Data Source                    Type       Interval 
  ------------------------------------------------------------------------
  rain_gage            rain_gage_timeseries           INTENSITY   15 min.
  
  
  ********************
  Subcatchment Summary
  ********************
  Name                       Area     Width   %Imperv    %Slope Rain Gage            Outlet              
  -----------------------------------------------------------------------------------------------------------
  Sub_1                      2.62    272.79     55.00    3.9580 rain_gage            J89                 
  Sub_10                     2.19    296.41     77.00    2.4860 rain_gage            J12                 
  Sub_11                     0.67    130.53     57.00    5.0240 rain_gage            J6                  
  Sub_12                     5.31    283.97     49.00    3.4940 rain_gage            J12                 
  Sub_13                     4.38    341.66     50.00    2.9930 rain_gage            J2                  
  Sub_14                    14.91    412.40     52.00    3.9710 rain_gage            J155                
  Sub_15                     3.68    325.75     59.00    4.8800 rain_gage            J96                 
  Sub_16                     2.81    372.64     48.00    3.5770 rain_gage            J32                 
  Sub_17                     4.94    458.98     41.00    4.7410 rain_gage            J30                 
  Sub_18                     1.52    250.00     79.00    2.3090 rain_gage            J8                  
  Sub_19                     2.15    372.00     78.00    3.4760 rain_gage            J121                
  Sub_2                      4.81    406.94     64.00    3.8880 rain_gage            J6                  
  Sub_20                    11.54    261.37     57.00    3.9380 rain_gage            J13                 
  Sub_21                     2.48    159.75     71.00    3.2870 rain_gage            J46                 
  Sub_22                     0.94    200.00     69.00    3.2890 rain_gage            J118                
  Sub_23                     2.95    250.00     63.00    3.6520 rain_gage            J103                
  Sub_24                     5.93    412.94     59.00    3.2030 rain_gage            J4                  
  Sub_25                     3.38    300.00     42.00    3.1260 rain_gage            J52                 
  Sub_26                     6.44    408.85     60.00    3.6440 rain_gage            J1                  
  Sub_27                     2.29    250.00     67.00    3.4680 rain_gage            J118                
  Sub_28                    10.61    229.01     71.00    3.1810 rain_gage            J43                 
  Sub_29                     4.46    300.00     76.00    3.1960 rain_gage            J7                  
  Sub_3                      2.79    466.00     72.00    3.7700 rain_gage            outfall             
  Sub_30                     2.64    390.64     74.00    3.0810 rain_gage            J57                 
  Sub_31                     2.90    292.33     72.00    2.7780 rain_gage            J156                
  Sub_32                     7.63    310.58     77.00    2.8180 rain_gage            J126                
  Sub_33                     3.19    461.41     83.00    3.0790 rain_gage            J63                 
  Sub_34                     2.29    250.00     65.00    2.6240 rain_gage            J5                  
  Sub_35                     2.76    217.64     70.00    2.8170 rain_gage            J3                  
  Sub_36                     1.43    235.88     50.00    2.2300 rain_gage            J70                 
  Sub_37                     1.87    251.70     78.00    3.2300 rain_gage            J71                 
  Sub_38                     4.37    354.85     73.00    3.2410 rain_gage            J23                 
  Sub_39                    11.94    244.72     56.00    2.9530 rain_gage            J147                
  Sub_4                      2.18    358.74     82.00    3.9740 rain_gage            J11                 
  Sub_5                      2.02    268.69     96.00    3.0480 rain_gage            J25                 
  Sub_6                      1.69    314.60     85.00    3.7140 rain_gage            J26                 
  Sub_7                      0.86    147.58     75.00    3.3650 rain_gage            J17                 
  Sub_8                      0.37     73.53     39.00    3.1440 rain_gage            J10                 
  Sub_9                      4.52    345.46     42.00    3.8900 rain_gage            J9                  


  *******************
  LID Control Summary
  *******************
                                   No. of        Unit        Unit      % Area    % Imperv      % Perv
  Subcatchment     LID Control      Units        Area       Width     Covered     Treated     Treated
  ---------------------------------------------------------------------------------------------------
  Sub_1            rain_garden         15      100.00        0.00        1.32        0.00       14.61
  Sub_1            rain_barrel         60        2.58        0.00        0.14       28.72        0.00
  Sub_10           rain_barrel        123        2.58        0.00        0.33       50.14        0.00
  Sub_11           rain_garden          6      100.00        0.00        2.06        0.00       23.94
  Sub_11           rain_barrel          8        2.58        0.00        0.07       14.47        0.00
  Sub_12           rain_garden         52      100.00        0.00        2.25        0.00       22.20
  Sub_12           rain_barrel        163        2.58        0.00        0.18       42.81        0.00
  Sub_13           rain_garden         28      100.00        0.00        1.47        0.00       14.82
  Sub_13           rain_barrel        167        2.58        0.00        0.23       52.08        0.00
  Sub_14           rain_garden        259      100.00        0.00        3.99        0.00       41.46
  Sub_14           rain_barrel        480        2.58        0.00        0.19       42.69        0.00
  Sub_15           rain_garden         62      100.00        0.00        3.86        0.00       47.60
  Sub_15           rain_barrel        125        2.58        0.00        0.20       39.38        0.00
  Sub_16           rain_garden          8      100.00        0.00        0.65        0.00        6.32
  Sub_16           rain_barrel         54        2.58        0.00        0.11       27.44        0.00
  Sub_17           rain_garden         52      100.00        0.00        2.41        0.00       20.48
  Sub_17           rain_barrel         91        2.58        0.00        0.11       30.87        0.00
  Sub_18           rain_garden          3      100.00        0.00        0.45        0.00       10.74
  Sub_18           rain_barrel         92        2.58        0.00        0.36       53.02        0.00
  Sub_19           rain_garden         14      100.00        0.00        1.49        0.00       34.17
  Sub_19           rain_barrel        106        2.58        0.00        0.29       43.37        0.00
  Sub_2            rain_garden         15      100.00        0.00        0.72        0.00        9.89
  Sub_2            rain_barrel        140        2.58        0.00        0.17       31.44        0.00
  Sub_20           rain_garden        122      100.00        0.00        2.43        0.00       28.21
  Sub_20           rain_barrel        361        2.58        0.00        0.19       37.80        0.00
  Sub_21           rain_garden          3      100.00        0.00        0.28        0.00        4.85
  Sub_21           rain_barrel        103        2.58        0.00        0.25       40.16        0.00
  Sub_22           rain_barrel         11        2.58        0.00        0.07       11.69        0.00
  Sub_23           rain_garden          5      100.00        0.00        0.39        0.00        5.33
  Sub_23           rain_barrel         59        2.58        0.00        0.12       21.74        0.00
  Sub_24           rain_garden         67      100.00        0.00        2.59        0.00       31.99
  Sub_24           rain_barrel        164        2.58        0.00        0.16       32.03        0.00
  Sub_25           rain_barrel         82        2.58        0.00        0.14       40.29        0.00
  Sub_26           rain_garden         26      100.00        0.00        0.93        0.00       11.50
  Sub_26           rain_barrel        224        2.58        0.00        0.21       40.07        0.00
  Sub_27           rain_garden         14      100.00        0.00        1.40        0.00       21.03
  Sub_27           rain_barrel         79        2.58        0.00        0.20       35.55        0.00
  Sub_28           rain_garden         65      100.00        0.00        1.41        0.00       23.87
  Sub_28           rain_barrel        359        2.58        0.00        0.20       33.06        0.00
  Sub_29           rain_garden         16      100.00        0.00        0.82        0.00       17.18
  Sub_29           rain_barrel        163        2.58        0.00        0.22       33.11        0.00
  Sub_3            rain_garden         10      100.00        0.00        0.82        0.00       14.43
  Sub_3            rain_barrel         41        2.58        0.00        0.09       14.15        0.00
  Sub_30           rain_garden          9      100.00        0.00        0.78        0.00       15.03
  Sub_30           rain_barrel        101        2.58        0.00        0.23       35.75        0.00
  Sub_31           rain_garden         36      100.00        0.00        2.85        0.00       50.13
  Sub_31           rain_barrel         89        2.58        0.00        0.18       29.48        0.00
  Sub_32           rain_garden         35      100.00        0.00        1.05        0.00       23.00
  Sub_32           rain_barrel        328        2.58        0.00        0.25       38.35        0.00
  Sub_33           rain_garden         10      100.00        0.00        0.72        0.00       21.52
  Sub_33           rain_barrel        125        2.58        0.00        0.23       32.35        0.00
  Sub_34           rain_garden         36      100.00        0.00        3.61        0.00       51.87
  Sub_34           rain_barrel         69        2.58        0.00        0.18       31.90        0.00
  Sub_35           rain_garden         35      100.00        0.00        2.91        0.00       48.42
  Sub_35           rain_barrel         77        2.58        0.00        0.17       27.45        0.00
  Sub_36           rain_garden         36      100.00        0.00        5.77        0.00       57.21
  Sub_36           rain_barrel         43        2.58        0.00        0.18       41.70        0.00
  Sub_37           rain_garden         17      100.00        0.00        2.08        0.00       46.98
  Sub_37           rain_barrel         62        2.58        0.00        0.20       29.26        0.00
  Sub_38           rain_garden         30      100.00        0.00        1.58        0.00       29.59
  Sub_38           rain_barrel        106        2.58        0.00        0.14       22.80        0.00
  Sub_39           rain_garden        207      100.00        0.00        3.98        0.00       45.51
  Sub_39           rain_barrel        252        2.58        0.00        0.12       25.82        0.00
  Sub_4            rain_garden          3      100.00        0.00        0.32        0.00        8.76
  Sub_4            rain_barrel         75        2.58        0.00        0.20       28.96        0.00
  Sub_5            rain_garden          3      100.00        0.00        0.34        0.00       38.08
  Sub_5            rain_barrel         46        2.58        0.00        0.14       16.36        0.00
  Sub_6            rain_garden         15      100.00        0.00        2.04        0.00       69.40
  Sub_6            rain_barrel         51        2.58        0.00        0.18       24.61        0.00
  Sub_7            rain_barrel          1        2.58        0.00        0.01        1.06        0.00
  Sub_9            rain_garden         33      100.00        0.00        1.68        0.00       14.55
  Sub_9            rain_barrel         94        2.58        0.00        0.12       33.85        0.00
  
  
  ************
  Node Summary
  ************
                                           Invert      Max.    Ponded    External
  Name                 Type                 Elev.     Depth      Area    Inflow  
  -------------------------------------------------------------------------------
  J1                   JUNCTION             -6.11     11.75       0.0
  J10                  JUNCTION             -6.30     10.18       0.0
  J103                 JUNCTION             -6.19     10.56       0.0
  J104                 JUNCTION             -6.22     10.06       0.0
  J11                  JUNCTION              0.00      4.57       0.0
  J118                 JUNCTION             -6.18     12.12       0.0
  J12                  JUNCTION             -1.49      6.08       0.0
  J121                 JUNCTION             -1.01      9.50       0.0
  J126                 JUNCTION              2.71      5.20       0.0
  J13                  JUNCTION             -6.14     12.38       0.0
  J14                  JUNCTION             -6.30     10.18       0.0
  J147                 JUNCTION              2.00      4.84       0.0
  J151                 JUNCTION             -6.29     10.14       0.0
  J156                 JUNCTION              2.00      6.65       0.0
  J17                  JUNCTION             -2.21      6.73       0.0
  J18                  JUNCTION             -6.29     10.21       0.0
  J2                   JUNCTION             -0.37      7.68       0.0
  J23                  JUNCTION              1.98      4.73       0.0
  J25                  JUNCTION             -0.96      9.42       0.0
  J26                  JUNCTION             -1.44      7.94       0.0
  J27                  JUNCTION             -2.16      4.90       0.0
  J3                   JUNCTION             -0.57      9.12       0.0
  J30                  JUNCTION             -6.26      9.78       0.0
  J32                  JUNCTION             -6.23     10.58       0.0
  J4                   JUNCTION             -1.20      7.63       0.0
  J43                  JUNCTION             -1.70      8.65       0.0
  J44                  JUNCTION             -6.18     12.57       0.0
  J46                  JUNCTION             -6.16     11.43       0.0
  J5                   JUNCTION             -1.09      8.97       0.0
  J50                  JUNCTION             -6.15     11.76       0.0
  J52                  JUNCTION             -6.13     12.49       0.0
  J57                  JUNCTION             -1.59      8.82       0.0
  J6                   JUNCTION             -2.09      5.83       0.0
  J63                  JUNCTION              1.87      4.03       0.0
  J7                   JUNCTION             -0.42      6.53       0.0
  J70                  JUNCTION              2.00      7.06       0.0
  J71                  JUNCTION              1.80      7.50       0.0
  J8                   JUNCTION             -1.37      8.64       0.0
  J89                  JUNCTION             -1.00      6.26       0.0
  J9                   JUNCTION             -2.20      4.44       0.0
  J96                  JUNCTION             -1.97      5.15       0.0
  outfall              OUTFALL              -6.30     10.00       0.0
  J155                 STORAGE              -4.00      7.18       0.0
  
  
  ************
  Link Summary
  ************
  Name             From Node        To Node          Type            Length    %Slope Roughness
  ---------------------------------------------------------------------------------------------
  C103_1           J71              J3               CONDUIT          380.3    0.6233    0.0100
  C103_3           J3               J5               CONDUIT          261.0    0.2000    0.0100
  C103_4           J5               J57              CONDUIT          252.8    0.2000    0.0100
  C108             J70              J71              CONDUIT          121.0    0.1612    0.0100
  C110             J43              J44              CONDUIT          240.0    0.1667    0.0100
  C125_1           J57              J1               CONDUIT          257.8    0.9757    0.0100
  C125_2           J1               J52              CONDUIT          254.2    0.0100    0.0100
  C147             J7               J4               CONDUIT          393.0    0.2000    0.0100
  C147_2           J4               J57              CONDUIT          194.0    0.2000    0.0100
  C147_5           J63              J7               CONDUIT          273.4    0.8371    0.0100
  C15              J26              J17              CONDUIT          386.0    0.2000    0.0100
  C152             J23              J63              CONDUIT          346.2    0.0323    0.0100
  C152_1           J147             J23              CONDUIT           56.8    0.0317    0.0100
  C158             J17              J151             CONDUIT           40.0    0.2000    0.0100
  C159             J151             J10              CONDUIT           65.0    0.0100    0.0100
  C160             J18              J151             CONDUIT           65.0    0.0100    0.0100
  C167             J104             J32              CONDUIT           77.0    0.0100    0.0100
  C168             J155             J104             CONDUIT           15.0    6.6815    0.0100
  C174             J156             J71              CONDUIT          226.0    0.0863    0.0100
  C18_1            J52              J13              CONDUIT           24.9    0.0104    0.0100
  C18_2            J13              J50              CONDUIT          142.9    0.0104    0.0100
  C2               J50              J46              CONDUIT           71.3    0.0100    0.0100
  C26              J11              J14              CONDUIT          445.6    0.2917    0.0100
  C27              J2               J89              CONDUIT          314.9    0.2000    0.0100
  C38              J96              J32              CONDUIT          130.0    0.1938    0.0100
  C47              J25              J26              CONDUIT          241.0    0.2000    0.0100
  C57              J103             J104             CONDUIT          262.0    0.0100    0.0100
  C62              J32              J30              CONDUIT          305.9    0.0100    0.0100
  C64              J89              J12              CONDUIT          237.9    0.2039    0.0100
  C64_2            J12              J6               CONDUIT          303.5    0.2000    0.0100
  C68_1            J6               J27              CONDUIT           38.4    0.1808    0.0100
  C68_2            J27              J9               CONDUIT           19.2    0.1804    0.0100
  C69              J9               J10              CONDUIT           52.0    0.2000    0.0100
  C70_1            J10              J14              CONDUIT          279.9    0.0046    0.0100
  C70_2            J14              outfall          CONDUIT            5.5    0.0183    0.0100
  C78              J30              J18              CONDUIT          281.0    0.0100    0.0100
  C84              J118             J103             CONDUIT          163.0    0.0100    0.0100
  C85              J44              J118             CONDUIT            8.0    0.0125    0.0100
  C86              J46              J44              CONDUIT          189.0    0.0100    0.0100
  C90_1            J121             J8               CONDUIT          179.1    0.2000    0.0100
  C90_2            J8               J32              CONDUIT          429.7    0.2000    0.0100
  C96              J126             J63              CONDUIT          582.0    0.1436    0.0100
  
  
  *********************
  Cross Section Summary
  *********************
                                        Full     Full     Hyd.     Max.   No. of     Full
  Conduit          Shape               Depth     Area     Rad.    Width  Barrels     Flow
  ---------------------------------------------------------------------------------------
  C103_1           CIRCULAR             1.50     1.77     0.38     1.50        1    10.78
  C103_3           CIRCULAR             1.50     1.77     0.38     1.50        1     6.11
  C103_4           CIRCULAR             1.50     1.77     0.38     1.50        1     6.11
  C108             CIRCULAR             1.25     1.23     0.31     1.25        1     3.37
  C110             CIRCULAR             1.50     1.77     0.38     1.50        1     5.57
  C125_1           CIRCULAR             3.00     7.07     0.75     3.00        1    85.65
  C125_2           RECT_CLOSED          8.00    40.00     1.54     5.00        1    79.21
  C147             CIRCULAR             2.00     3.14     0.50     2.00        1    13.15
  C147_2           CIRCULAR             2.00     3.14     0.50     2.00        1    13.15
  C147_5           CIRCULAR             2.01     3.16     0.50     2.01        1    27.16
  C15              CIRCULAR             1.75     2.41     0.44     1.75        1     9.21
  C152             CIRCULAR             1.26     1.24     0.31     1.26        1     1.53
  C152_1           CIRCULAR             1.26     1.24     0.31     1.26        1     1.51
  C158             CIRCULAR             1.75     2.41     0.44     1.75        1     9.21
  C159             RECT_CLOSED          8.00    40.00     1.54     5.00        1    79.21
  C160             RECT_CLOSED          8.00    40.00     1.54     5.00        1    79.21
  C167             RECT_CLOSED          8.00    40.00     1.54     5.00        1    79.21
  C168             CIRCULAR             2.00     3.14     0.50     2.00        1    76.02
  C174             CIRCULAR             1.00     0.79     0.25     1.00        1     1.36
  C18_1            RECT_CLOSED          8.00    40.00     1.54     5.00        1    80.82
  C18_2            RECT_CLOSED          8.00    40.00     1.54     5.00        1    80.92
  C2               RECT_CLOSED          8.00    40.00     1.54     5.00        1    79.21
  C26              CIRCULAR             1.00     0.79     0.25     1.00        1     2.50
  C27              CIRCULAR             1.25     1.23     0.31     1.25        1     3.76
  C38              CIRCULAR             1.50     1.77     0.38     1.50        1     6.01
  C47              CIRCULAR             1.75     2.41     0.44     1.75        1     9.21
  C57              RECT_CLOSED          8.00    40.00     1.54     5.00        1    79.21
  C62              RECT_CLOSED          8.00    40.00     1.54     5.00        1    79.21
  C64              CIRCULAR             2.00     3.14     0.50     2.00        1    13.28
  C64_2            CIRCULAR             2.00     3.14     0.50     2.00        1    13.15
  C68_1            CIRCULAR             2.00     3.14     0.50     2.00        1    12.51
  C68_2            CIRCULAR             2.00     3.14     0.50     2.00        1    12.49
  C69              CIRCULAR             2.00     3.14     0.50     2.00        1    13.15
  C70_1            RECT_CLOSED         10.00    50.00     1.67     5.00        1    70.50
  C70_2            RECT_CLOSED         10.00    50.00     1.67     5.00        1   141.22
  C78              RECT_CLOSED          8.00    40.00     1.54     5.00        1    79.21
  C84              RECT_CLOSED          8.00    40.00     1.54     5.00        1    79.21
  C85              RECT_CLOSED          8.00    40.00     1.54     5.00        1    88.56
  C86              RECT_CLOSED          8.00    40.00     1.54     5.00        1    79.21
  C90_1            RECT_CLOSED          1.50     1.36     0.28     0.91        1     3.91
  C90_2            RECT_CLOSED          1.50     1.36     0.28     0.91        1     3.91
  C96              CIRCULAR             1.25     1.23     0.31     1.25        1     3.18
  
  
  ****************
  Analysis Options
  ****************
  Flow Units ............... CFS
  Process Models:
    Rainfall/Runoff ........ YES
    RDII ................... NO
    Snowmelt ............... NO
    Groundwater ............ NO
    Flow Routing ........... YES
    Ponding Allowed ........ NO
    Water Quality .......... NO
  Infiltration Method ...... GREEN_AMPT
  Flow Routing Method ...... DYNWAVE
  Surcharge Method ......... EXTRAN
  Starting Date ............ 05/31/2025 12:00:00
  Ending Date .............. 06/02/2025 12:00:00
  Antecedent Dry Days ...... 0.0
  Report Time Step ......... 00:05:00
  Wet Time Step ............ 00:05:00
  Dry Time Step ............ 00:05:00
  Routing Time Step ........ 5.00 sec
  Variable Time Step ....... YES
  Maximum Trials ........... 8
  Number of Threads ........ 2
  Head Tolerance ........... 0.005000 ft
  
  
  *********************
  Control Actions Taken
  *********************

  
  **************************        Volume         Depth
  Runoff Quantity Continuity     acre-feet        inches
  **************************     ---------       -------
  Initial LID Storage ......         0.618         0.047
  Total Precipitation ......         8.540         0.655
  Evaporation Loss .........         0.000         0.000
  Infiltration Loss ........         4.924         0.378
  Surface Runoff ...........         2.325         0.178
  Final Storage ............         1.897         0.146
  Continuity Error (%) .....         0.131
  
  
  **************************        Volume        Volume
  Flow Routing Continuity        acre-feet      10^6 gal
  **************************     ---------     ---------
  Dry Weather Inflow .......         0.000         0.000
  Wet Weather Inflow .......         2.325         0.758
  Groundwater Inflow .......         0.000         0.000
  RDII Inflow ..............         0.000         0.000
  External Inflow ..........         0.000         0.000
  External Outflow .........         0.512         0.167
  Flooding Loss ............         0.000         0.000
  Evaporation Loss .........         0.000         0.000
  Exfiltration Loss ........         0.000         0.000
  Initial Stored Volume ....         1.620         0.528
  Final Stored Volume ......         3.433         1.119
  Continuity Error (%) .....        -0.017
  
  
  *************************
  Highest Continuity Errors
  *************************
  Node J30 (24.69%)
  Node J18 (17.59%)
  Node J14 (15.51%)
  Node J32 (14.51%)
  Node J118 (14.03%)
  
  
  ***************************
  Time-Step Critical Elements
  ***************************
  Link C85 (26.24%)
  Link C168 (7.91%)
  Link C68_2 (2.91%)
  Link C70_2 (2.36%)
  
  
  ********************************
  Highest Flow Instability Indexes
  ********************************
  Link C84 (38)
  Link C85 (35)
  Link C68_2 (32)
  Link C86 (24)
  Link C2 (22)
  
  
  *********************************
  Most Frequent Nonconverging Nodes
  *********************************
  Node outfall (10.82%)
  Node J118 (10.37%)
  Node J44 (1.84%)
  Node J27 (0.14%)
  Node J43 (0.13%)
  
  
  *************************
  Routing Time Step Summary
  *************************
  Minimum Time Step           :     0.50 sec
  Average Time Step           :     3.42 sec
  Maximum Time Step           :     5.00 sec
  % of Time in Steady State   :     0.00
  Average Iterations per Step :     3.70
  % of Steps Not Converging   :    10.82
  Time Step Frequencies       :
      5.000 -  3.155 sec      :    60.71 %
      3.155 -  1.991 sec      :     3.46 %
      1.991 -  1.256 sec      :     8.31 %
      1.256 -  0.792 sec      :     4.72 %
      0.792 -  0.500 sec      :    22.80 %
  
  
  ***************************
  Subcatchment Runoff Summary
  ***************************
  
  ------------------------------------------------------------------------------------------------------------------------------
                            Total      Total      Total      Total     Imperv       Perv      Total       Total     Peak  Runoff
                           Precip      Runon       Evap      Infil     Runoff     Runoff     Runoff      Runoff   Runoff   Coeff
  Subcatchment                 in         in         in         in         in         in         in    10^6 gal      CFS
  ------------------------------------------------------------------------------------------------------------------------------
  Sub_1                      0.65       0.00       0.00       0.41       0.33       0.00       0.17        0.01     0.19   0.255
  Sub_10                     0.65       0.00       0.00       0.27       0.47       0.08       0.24        0.01     0.27   0.370
  Sub_11                     0.66       0.00       0.00       0.39       0.34       0.00       0.21        0.00     0.06   0.315
  Sub_12                     0.66       0.00       0.00       0.44       0.30       0.00       0.12        0.02     0.28   0.181
  Sub_13                     0.66       0.00       0.00       0.45       0.30       0.00       0.10        0.01     0.20   0.156
  Sub_14                     0.66       0.00       0.00       0.42       0.31       0.00       0.12        0.05     0.81   0.189
  Sub_15                     0.66       0.00       0.00       0.39       0.35       0.00       0.15        0.01     0.24   0.227
  Sub_16                     0.65       0.00       0.00       0.44       0.29       0.00       0.15        0.01     0.19   0.228
  Sub_17                     0.65       0.00       0.00       0.47       0.25       0.00       0.12        0.02     0.26   0.182
  Sub_18                     0.66       0.00       0.00       0.34       0.48       0.00       0.16        0.01     0.11   0.243
  Sub_19                     0.66       0.00       0.00       0.33       0.47       0.00       0.19        0.01     0.18   0.287
  Sub_2                      0.65       0.00       0.00       0.37       0.39       0.01       0.19        0.03     0.40   0.295
  Sub_20                     0.66       0.00       0.00       0.40       0.34       0.00       0.15        0.05     0.76   0.228
  Sub_21                     0.65       0.00       0.00       0.36       0.44       0.00       0.18        0.01     0.20   0.279
  Sub_22                     0.66       0.00       0.00       0.32       0.43       0.02       0.28        0.01     0.12   0.432
  Sub_23                     0.65       0.00       0.00       0.38       0.39       0.00       0.21        0.02     0.28   0.324
  Sub_24                     0.66       0.00       0.00       0.39       0.35       0.00       0.17        0.03     0.44   0.258
  Sub_25                     0.65       0.00       0.00       0.48       0.26       0.00       0.11        0.01     0.16   0.165
  Sub_26                     0.66       0.00       0.00       0.40       0.37       0.00       0.15        0.03     0.44   0.235
  Sub_27                     0.66       0.00       0.00       0.37       0.41       0.00       0.18        0.01     0.19   0.281
  Sub_28                     0.65       0.00       0.00       0.35       0.43       0.00       0.20        0.06     0.93   0.309
  Sub_29                     0.66       0.00       0.00       0.33       0.46       0.00       0.22        0.03     0.43   0.332
  Sub_3                      0.66       0.00       0.00       0.30       0.44       0.03       0.29        0.02     0.38   0.445
  Sub_30                     0.66       0.00       0.00       0.34       0.45       0.00       0.20        0.01     0.24   0.311
  Sub_31                     0.66       0.00       0.00       0.33       0.43       0.00       0.21        0.02     0.27   0.325
  Sub_32                     0.66       0.00       0.00       0.33       0.47       0.00       0.20        0.04     0.68   0.309
  Sub_33                     0.65       0.00       0.00       0.30       0.51       0.00       0.24        0.02     0.34   0.367
  Sub_34                     0.65       0.00       0.00       0.36       0.39       0.00       0.18        0.01     0.19   0.281
  Sub_35                     0.65       0.00       0.00       0.34       0.42       0.00       0.21        0.02     0.26   0.325
  Sub_36                     0.65       0.00       0.00       0.42       0.29       0.00       0.12        0.00     0.07   0.181
  Sub_37                     0.66       0.00       0.00       0.31       0.47       0.00       0.23        0.01     0.19   0.356
  Sub_38                     0.66       0.00       0.00       0.33       0.44       0.00       0.24        0.03     0.46   0.366
  Sub_39                     0.65       0.00       0.00       0.39       0.33       0.00       0.17        0.06     0.90   0.263
  Sub_4                      0.65       0.00       0.00       0.30       0.50       0.00       0.25        0.01     0.24   0.383
  Sub_5                      0.66       0.00       0.00       0.11       0.59       0.17       0.45        0.02     0.40   0.684
  Sub_6                      0.66       0.00       0.00       0.27       0.51       0.00       0.27        0.01     0.20   0.416
  Sub_7                      0.65       0.00       0.00       0.30       0.46       0.00       0.32        0.01     0.12   0.490
  Sub_8                      0.66       0.00       0.00       0.47       0.24       0.00       0.17        0.00     0.03   0.258
  Sub_9                      0.66       0.00       0.00       0.47       0.25       0.00       0.12        0.01     0.24   0.180
  

  ***********************
  LID Performance Summary
  ***********************

  --------------------------------------------------------------------------------------------------------------------
                                         Total      Evap     Infil   Surface    Drain    Initial     Final  Continuity
                                        Inflow      Loss      Loss   Outflow   Outflow   Storage   Storage       Error
  Subcatchment      LID Control             in        in        in        in        in        in        in           %
  --------------------------------------------------------------------------------------------------------------------
  Sub_1             rain_garden           0.66      0.00      0.00      0.00      0.00      2.40      3.05        0.00
  Sub_1             rain_barrel          49.61      0.00      0.00     15.36      0.00      0.00     34.25        0.00
  Sub_10            rain_barrel          49.94      0.00      0.00     15.69      0.00      0.00     34.25        0.00
  Sub_11            rain_garden           0.66      0.00      0.00      0.00      0.00      2.40      3.05        0.00
  Sub_11            rain_barrel          49.25      0.00      0.00     15.00      0.00      0.00     34.25        0.00
  Sub_12            rain_garden           0.66      0.00      0.00      0.00      0.00      2.40      3.05        0.00
  Sub_12            rain_barrel          48.73      0.00      0.00     14.48      0.00      0.00     34.25        0.00
  Sub_13            rain_garden           0.66      0.00      0.00      0.00      0.00      2.40      3.05        0.00
  Sub_13            rain_barrel          49.00      0.00      0.00     14.75      0.00      0.00     34.25       -0.00
  Sub_14            rain_garden           0.66      0.00      0.00      0.00      0.00      2.40      3.05        0.00
  Sub_14            rain_barrel          48.24      0.00      0.00     13.99      0.00      0.00     34.25       -0.00
  Sub_15            rain_garden           0.66      0.00      0.00      0.00      0.00      2.40      3.05        0.00
  Sub_15            rain_barrel          47.98      0.00      0.00     13.73      0.00      0.00     34.25        0.00
  Sub_16            rain_garden           0.66      0.00      0.00      0.00      0.00      2.40      3.05        0.00
  Sub_16            rain_barrel          49.69      0.00      0.00     15.44      0.00      0.00     34.25       -0.00
  Sub_17            rain_garden           0.66      0.00      0.00      0.00      0.00      2.40      3.05        0.00
  Sub_17            rain_barrel          48.96      0.00      0.00     14.71      0.00      0.00     34.25        0.00
  Sub_18            rain_garden           0.66      0.00      0.00      0.00      0.00      2.40      3.05        0.00
  Sub_18            rain_barrel          49.98      0.00      0.00     15.73      0.00      0.00     34.25       -0.00
  Sub_19            rain_garden           0.66      0.00      0.00      0.00      0.00      2.40      3.05        0.00
  Sub_19            rain_barrel          49.31      0.00      0.00     15.06      0.00      0.00     34.25       -0.00
  Sub_2             rain_garden           0.73      0.00      0.00      0.00      0.00      2.40      3.13        0.00
  Sub_2             rain_barrel          50.01      0.00      0.00     15.76      0.00      0.00     34.25        0.00
  Sub_20            rain_garden           0.66      0.00      0.00      0.00      0.00      2.40      3.05        0.00
  Sub_20            rain_barrel          48.97      0.00      0.00     14.72      0.00      0.00     34.25       -0.00
  Sub_21            rain_garden           0.66      0.00      0.00      0.00      0.00      2.40      3.05        0.00
  Sub_21            rain_barrel          49.82      0.00      0.00     15.57      0.00      0.00     34.25        0.00
  Sub_22            rain_barrel          50.42      0.00      0.00     16.17      0.00      0.00     34.25       -0.00
  Sub_23            rain_garden           0.66      0.00      0.00      0.00      0.00      2.40      3.05        0.00
  Sub_23            rain_barrel          49.71      0.00      0.00     15.46      0.00      0.00     34.25        0.00
  Sub_24            rain_garden           0.66      0.00      0.00      0.00      0.00      2.40      3.05        0.00
  Sub_24            rain_barrel          48.54      0.00      0.00     14.29      0.00      0.00     34.25        0.00
  Sub_25            rain_barrel          50.83      0.00      0.00     16.58      0.00      0.00     34.25       -0.00
  Sub_26            rain_garden           0.66      0.00      0.00      0.00      0.00      2.40      3.05        0.00
  Sub_26            rain_barrel          49.93      0.00      0.00     15.68      0.00      0.00     34.25        0.00
  Sub_27            rain_garden           0.66      0.00      0.00      0.00      0.00      2.40      3.05        0.00
  Sub_27            rain_barrel          49.71      0.00      0.00     15.46      0.00      0.00     34.25       -0.00
  Sub_28            rain_garden           0.66      0.00      0.00      0.00      0.00      2.40      3.05        0.00
  Sub_28            rain_barrel          49.81      0.00      0.00     15.56      0.00      0.00     34.25        0.00
  Sub_29            rain_garden           0.66      0.00      0.00      0.00      0.00      2.40      3.05        0.00
  Sub_29            rain_barrel          49.74      0.00      0.00     15.49      0.00      0.00     34.25       -0.00
  Sub_3             rain_garden           1.20      0.00      0.00      0.00      0.00      2.40      3.60        0.00
  Sub_3             rain_barrel          50.25      0.00      0.00     16.00      0.00      0.00     34.25       -0.00
  Sub_30            rain_garden           0.66      0.00      0.00      0.00      0.00      2.40      3.05        0.00
  Sub_30            rain_barrel          49.93      0.00      0.00     15.68      0.00      0.00     34.25        0.00
  Sub_31            rain_garden           0.66      0.00      0.00      0.00      0.00      2.40      3.05        0.00
  Sub_31            rain_barrel          49.04      0.00      0.00     14.79      0.00      0.00     34.25        0.00
  Sub_32            rain_garden           0.66      0.00      0.00      0.00      0.00      2.40      3.05        0.00
  Sub_32            rain_barrel          49.50      0.00      0.00     15.25      0.00      0.00     34.25        0.00
  Sub_33            rain_garden           0.66      0.00      0.00      0.00      0.00      2.40      3.05        0.00
  Sub_33            rain_barrel          49.63      0.00      0.00     15.38      0.00      0.00     34.25        0.00
  Sub_34            rain_garden           0.66      0.00      0.00      0.00      0.00      2.40      3.05        0.00
  Sub_34            rain_barrel          48.29      0.00      0.00     14.04      0.00      0.00     34.25        0.00
  Sub_35            rain_garden           0.66      0.00      0.00      0.00      0.00      2.40      3.05        0.00
  Sub_35            rain_barrel          48.78      0.00      0.00     14.53      0.00      0.00     34.25       -0.00
  Sub_36            rain_garden           0.66      0.00      0.00      0.00      0.00      2.40      3.05        0.00
  Sub_36            rain_barrel          47.67      0.00      0.00     13.42      0.00      0.00     34.25        0.00
  Sub_37            rain_garden           0.66      0.00      0.00      0.00      0.00      2.40      3.05        0.00
  Sub_37            rain_barrel          49.20      0.00      0.00     14.95      0.00      0.00     34.25        0.00
  Sub_38            rain_garden           0.66      0.00      0.00      0.00      0.00      2.40      3.05        0.00
  Sub_38            rain_barrel          49.20      0.00      0.00     14.95      0.00      0.00     34.25        0.00
  Sub_39            rain_garden           0.66      0.00      0.00      0.00      0.00      2.40      3.05        0.00
  Sub_39            rain_barrel          47.97      0.00      0.00     13.72      0.00      0.00     34.25       -0.00
  Sub_4             rain_garden           0.66      0.00      0.00      0.00      0.00      2.40      3.05        0.00
  Sub_4             rain_barrel          50.07      0.00      0.00     15.82      0.00      0.00     34.25        0.00
  Sub_5             rain_garden          19.07      0.00      3.69     11.03      0.00      2.40      6.76       -0.06
  Sub_5             rain_barrel          50.03      0.00      0.00     15.78      0.00      0.00     34.25       -0.00
  Sub_6             rain_garden           0.82      0.00      0.00      0.00      0.00      2.40      3.22        0.00
  Sub_6             rain_barrel          49.44      0.00      0.00     15.19      0.00      0.00     34.25        0.00
  Sub_7             rain_barrel          49.87      0.00      0.00     15.62      0.00      0.00     34.25       -0.00
  Sub_9             rain_garden           0.66      0.00      0.00      0.00      0.00      2.40      3.05        0.00
  Sub_9             rain_barrel          49.01      0.00      0.00     14.76      0.00      0.00     34.25        0.00
  
  ******************
  Node Depth Summary
  ******************
  
  ---------------------------------------------------------------------------------
                                 Average  Maximum  Maximum  Time of Max    Reported
                                   Depth    Depth      HGL   Occurrence   Max Depth
  Node                 Type         Feet     Feet     Feet  days hr:min        Feet
  ---------------------------------------------------------------------------------
  J1                   JUNCTION     3.71     6.90     0.79     0  19:38        6.88
  J10                  JUNCTION     3.86     7.07     0.77     0  19:35        7.05
  J103                 JUNCTION     3.78     6.97     0.78     0  19:39        6.91
  J104                 JUNCTION     3.80     7.01     0.79     0  19:36        6.98
  J11                  JUNCTION     0.08     0.78     0.78     0  19:33        0.74
  J118                 JUNCTION     3.76     6.94     0.77     0  19:39        6.90
  J12                  JUNCTION     0.61     2.41     0.93     0  19:33        2.23
  J121                 JUNCTION     0.30     3.04     2.02     0  19:31        1.81
  J126                 JUNCTION     0.09     0.39     3.10     0  18:15        0.39
  J13                  JUNCTION     3.73     6.93     0.79     0  19:35        6.92
  J14                  JUNCTION     3.86     7.08     0.78     0  19:34        7.08
  J147                 JUNCTION     0.19     0.77     2.77     0  18:15        0.77
  J151                 JUNCTION     3.85     7.06     0.77     0  19:35        7.04
  J156                 JUNCTION     0.08     0.32     2.32     0  18:15        0.32
  J17                  JUNCTION     1.04     3.16     0.95     0  19:35        2.96
  J18                  JUNCTION     3.85     7.04     0.76     0  19:35        7.03
  J2                   JUNCTION     0.12     1.31     0.94     0  19:41        1.23
  J23                  JUNCTION     0.19     0.77     2.75     0  18:15        0.77
  J25                  JUNCTION     0.29     5.18     4.22     0  19:33        1.70
  J26                  JUNCTION     0.58     4.72     3.27     0  19:33        2.18
  J27                  JUNCTION     1.03     2.97     0.81     0  19:35        2.91
  J3                   JUNCTION     0.18     1.42     0.85     0  19:35        1.41
  J30                  JUNCTION     3.82     7.01     0.75     0  19:38        7.00
  J32                  JUNCTION     3.80     7.02     0.79     0  19:36        6.96
  J4                   JUNCTION     0.50     3.94     2.74     0  19:35        1.89
  J43                  JUNCTION     0.74     2.47     0.77     0  19:39        2.42
  J44                  JUNCTION     3.77     6.94     0.77     0  19:39        6.90
  J46                  JUNCTION     3.75     6.92     0.76     0  19:37        6.91
  J5                   JUNCTION     0.39     1.96     0.87     0  19:35        1.89
  J50                  JUNCTION     3.75     6.92     0.77     0  19:35        6.92
  J52                  JUNCTION     3.73     6.93     0.79     0  19:35        6.92
  J57                  JUNCTION     0.69     2.50     0.91     0  19:35        2.33
  J6                   JUNCTION     0.98     2.90     0.81     0  19:35        2.84
  J63                  JUNCTION     0.10     0.40     2.27     0  18:15        0.40
  J7                   JUNCTION     0.21     1.37     0.95     0  19:36        1.25
  J70                  JUNCTION     0.03     0.13     2.13     0  18:15        0.13
  J71                  JUNCTION     0.05     0.23     2.03     0  18:15        0.23
  J8                   JUNCTION     0.51     3.10     1.73     0  19:31        2.15
  J89                  JUNCTION     0.31     1.87     0.87     0  19:35        1.74
  J9                   JUNCTION     1.05     2.99     0.79     0  19:35        2.95
  J96                  JUNCTION     0.88     2.76     0.79     0  19:36        2.70
  outfall              OUTFALL      6.67     7.50     1.20     0  18:00        7.50
  J155                 STORAGE      2.22     2.41    -1.59     0  21:23        2.41
  
  
  *******************
  Node Inflow Summary
  *******************
  
  -------------------------------------------------------------------------------------------------
                                  Maximum  Maximum                  Lateral       Total        Flow
                                  Lateral    Total  Time of Max      Inflow      Inflow     Balance
                                   Inflow   Inflow   Occurrence      Volume      Volume       Error
  Node                 Type           CFS      CFS  days hr:min    10^6 gal    10^6 gal     Percent
  -------------------------------------------------------------------------------------------------
  J1                   JUNCTION      0.44     4.90     0  18:15      0.0269       0.324      11.014
  J10                  JUNCTION      0.03     7.43     0  21:26     0.00169       0.258      16.104
  J103                 JUNCTION      0.28     7.56     0  19:32       0.017        0.35      12.491
  J104                 JUNCTION      0.00    15.28     0  19:35           0        0.37      10.236
  J11                  JUNCTION      0.24     0.41     0  19:30      0.0148      0.0155       0.652
  J118                 JUNCTION      0.30    32.82     0  19:17      0.0187       0.964      16.322
  J12                  JUNCTION      0.51     1.69     0  19:20      0.0314        0.07       2.778
  J121                 JUNCTION      0.18     0.48     0  19:23       0.011      0.0125       0.932
  J126                 JUNCTION      0.68     0.68     0  18:15       0.042       0.042      -0.003
  J13                  JUNCTION      0.76     6.97     0  19:38      0.0468        0.33       5.329
  J14                  JUNCTION      0.00     7.53     0  21:29           0       0.192      18.352
  J147                 JUNCTION      0.90     0.90     0  18:15      0.0559      0.0559       0.000
  J151                 JUNCTION      0.00     7.49     0  21:26           0       0.215       6.767
  J156                 JUNCTION      0.27     0.27     0  18:15      0.0168      0.0168      -0.003
  J17                  JUNCTION      0.12     1.05     0  19:27     0.00749      0.0544       6.513
  J18                  JUNCTION      0.00     7.21     0  21:26           0       0.202      21.342
  J2                   JUNCTION      0.20     0.62     0  19:21      0.0121       0.015      -0.331
  J23                  JUNCTION      0.46     1.36     0  18:15      0.0284      0.0843       0.000
  J25                  JUNCTION      0.40     1.16     0  19:25      0.0245       0.028       0.087
  J26                  JUNCTION      0.20     1.00     0  19:20      0.0125      0.0455       4.166
  J27                  JUNCTION      0.00     2.16     0  19:10           0      0.0938      -0.202
  J3                   JUNCTION      0.26     1.20     0  19:23       0.016      0.0524       0.015
  J30                  JUNCTION      0.26     7.39     0  19:29       0.016       0.243      32.778
  J32                  JUNCTION      0.19    11.63     0  19:29      0.0114       0.286      16.979
  J4                   JUNCTION      0.44     3.32     0  19:37      0.0272       0.206       0.467
  J43                  JUNCTION      0.93     0.93     0  18:15      0.0582       0.059       2.557
  J44                  JUNCTION      0.00    24.32     0  19:17           0        0.84      -9.885
  J46                  JUNCTION      0.20     7.66     0  19:38      0.0123       0.312       9.069
  J5                   JUNCTION      0.19     1.13     0  19:24      0.0114      0.0692       0.632
  J50                  JUNCTION      0.00     7.75     0  19:38           0       0.319       7.254
  J52                  JUNCTION      0.16     6.68     0  19:38     0.00993       0.309       9.901
  J57                  JUNCTION      0.24     4.47     0  18:15      0.0146       0.293       1.342
  J6                   JUNCTION      0.46     2.72     0  19:10       0.029      0.0965       2.491
  J63                  JUNCTION      0.34     2.38     0  18:15      0.0209       0.147      -0.041
  J7                   JUNCTION      0.43     2.80     0  18:15      0.0263       0.175      -0.082
  J70                  JUNCTION      0.07     0.07     0  18:15     0.00461     0.00461      -0.021
  J71                  JUNCTION      0.19     0.54     0  18:15      0.0119      0.0333      -0.207
  J8                   JUNCTION      0.11     0.48     0  19:18     0.00655      0.0229       6.827
  J89                  JUNCTION      0.19     1.25     0  19:20      0.0119      0.0345       0.935
  J9                   JUNCTION      0.24     2.46     0  19:10      0.0145       0.108       0.284
  J96                  JUNCTION      0.24     0.24     0  18:15      0.0148      0.0171       4.754
  outfall              OUTFALL       0.38     7.67     0  21:29      0.0221       0.167       0.000
  J155                 STORAGE       0.81     6.27     0  19:36        0.05        0.69      -0.002
  
  
  **********************
  Node Surcharge Summary
  **********************
  
  Surcharging occurs when water rises above the top of the highest conduit.
  ---------------------------------------------------------------------
                                               Max. Height   Min. Depth
                                   Hours       Above Crown    Below Rim
  Node                 Type      Surcharged           Feet         Feet
  ---------------------------------------------------------------------
  J12                  JUNCTION        0.74          0.412        3.667
  J121                 JUNCTION        0.83          1.535        6.461
  J17                  JUNCTION        3.42          1.411        3.572
  J2                   JUNCTION        0.01          0.063        6.371
  J25                  JUNCTION        0.03          3.427        4.241
  J26                  JUNCTION        1.36          2.966        3.224
  J27                  JUNCTION        2.53          0.974        1.929
  J4                   JUNCTION        0.03          1.940        3.687
  J43                  JUNCTION        2.62          0.967        6.183
  J5                   JUNCTION        1.09          0.460        7.006
  J6                   JUNCTION        2.37          0.897        2.937
  J8                   JUNCTION        1.83          1.602        5.535
  J9                   JUNCTION        2.62          0.990        1.450
  J96                  JUNCTION        3.44          1.260        2.393
  
  
  *********************
  Node Flooding Summary
  *********************
  
  No nodes were flooded.
  
  
  **********************
  Storage Volume Summary
  **********************
  
  ------------------------------------------------------------------------------------------------
                         Average    Avg   Evap  Exfil     Maximum    Max    Time of Max    Maximum
                          Volume   Pcnt   Pcnt   Pcnt      Volume   Pcnt     Occurrence    Outflow
  Storage Unit          1000 ft   Full   Loss   Loss    1000 ft   Full    days hr:min        CFS
  ------------------------------------------------------------------------------------------------
  J155                    79.000   25.1    0.0    0.0      86.445   27.4       0  21:23       6.94
  
  
  ***********************
  Outfall Loading Summary
  ***********************
  
  -----------------------------------------------------------
                         Flow       Avg       Max       Total
                         Freq      Flow      Flow      Volume
  Outfall Node           Pcnt       CFS       CFS    10^6 gal
  -----------------------------------------------------------
  outfall               39.20      0.83      7.67       0.167
  -----------------------------------------------------------
  System                39.20      0.83      7.67       0.167
  
  
  ********************
  Link Flow Summary
  ********************
  
  -----------------------------------------------------------------------------
                                 Maximum  Time of Max   Maximum    Max/    Max/
                                  |Flow|   Occurrence   |Veloc|    Full    Full
  Link                 Type          CFS  days hr:min    ft/sec    Flow   Depth
  -----------------------------------------------------------------------------
  C103_1               CONDUIT      0.54     0  18:15      2.18    0.05    0.52
  C103_3               CONDUIT      1.00     0  19:37      2.21    0.16    0.97
  C103_4               CONDUIT      1.06     0  19:24      2.31    0.17    1.00
  C108                 CONDUIT      0.07     0  18:15      0.70    0.02    0.14
  C110                 CONDUIT      0.93     0  18:15      2.56    0.17    1.00
  C125_1               CONDUIT      4.69     0  19:38      6.29    0.05    0.92
  C125_2               CONDUIT      6.63     0  19:38      0.86    0.08    0.86
  C147                 CONDUIT      3.18     0  19:37      3.26    0.24    0.84
  C147_2               CONDUIT      3.24     0  18:15      4.55    0.25    1.00
  C147_5               CONDUIT      2.38     0  18:15      3.71    0.09    0.40
  C15                  CONDUIT      1.00     0  19:27      2.06    0.11    1.00
  C152                 CONDUIT      1.36     0  18:15      2.40    0.89    0.47
  C152_1               CONDUIT      0.90     0  18:15      1.13    0.59    0.61
  C158                 CONDUIT      1.05     0  19:27      2.50    0.11    1.00
  C159                 CONDUIT      7.34     0  21:26      0.23    0.09    0.88
  C160                 CONDUIT      7.49     0  21:26      0.27    0.09    0.88
  C167                 CONDUIT     11.39     0  19:29      0.47    0.14    0.87
  C168                 CONDUIT      6.94     0  19:33      4.58    0.09    0.54
  C174                 CONDUIT      0.27     0  18:15      1.56    0.20    0.27
  C18_1                CONDUIT      6.71     0  19:38      0.81    0.08    0.87
  C18_2                CONDUIT      7.75     0  19:38      0.90    0.10    0.87
  C2                   CONDUIT      7.60     0  19:38      0.83    0.10    0.86
  C26                  CONDUIT      0.32     0  19:30      2.06    0.13    0.89
  C27                  CONDUIT      0.68     0  19:37      1.40    0.18    1.00
  C38                  CONDUIT      0.24     0  18:15      1.79    0.04    1.00
  C47                  CONDUIT      0.96     0  19:25      1.66    0.10    1.00
  C57                  CONDUIT      8.14     0  19:39      0.69    0.10    0.87
  C62                  CONDUIT      7.30     0  19:29      0.41    0.09    0.87
  C64                  CONDUIT      1.17     0  19:20      1.40    0.09    0.97
  C64_2                CONDUIT      1.39     0  19:20      2.00    0.11    1.00
  C68_1                CONDUIT      2.16     0  19:10      2.56    0.17    1.00
  C68_2                CONDUIT      2.34     0  19:10      2.53    0.19    1.00
  C69                  CONDUIT      2.24     0  19:09      3.05    0.17    1.00
  C70_1                CONDUIT      7.52     0  21:29      0.24    0.11    0.71
  C70_2                CONDUIT      7.67     0  21:29      0.25    0.05    0.71
  C78                  CONDUIT      7.21     0  21:26      0.23    0.09    0.88
  C84                  CONDUIT      6.99     0  19:35      0.84    0.09    0.87
  C85                  CONDUIT     32.46     0  19:17      1.04    0.37    0.87
  C86                  CONDUIT      7.36     0  19:38      0.77    0.09    0.87
  C90_1                CONDUIT      0.41     0  19:23      1.21    0.11    1.00
  C90_2                CONDUIT      0.57     0  21:28      1.83    0.15    1.00
  C96                  CONDUIT      0.68     0  18:15      2.03    0.21    0.32
  
  
  ***************************
  Flow Classification Summary
  ***************************
  
  -------------------------------------------------------------------------------------
                      Adjusted    ---------- Fraction of Time in Flow Class ---------- 
                       /Actual         Up    Down  Sub   Sup   Up    Down  Norm  Inlet 
  Conduit               Length    Dry  Dry   Dry   Crit  Crit  Crit  Crit  Ltd   Ctrl  
  -------------------------------------------------------------------------------------
  C103_1                  1.00   0.31  0.00  0.00  0.69  0.00  0.00  0.00  0.64  0.00
  C103_3                  1.00   0.31  0.00  0.00  0.69  0.00  0.00  0.00  0.61  0.00
  C103_4                  1.00   0.31  0.00  0.00  0.69  0.00  0.00  0.00  0.05  0.00
  C108                    1.00   0.31  0.00  0.00  0.69  0.00  0.00  0.00  0.50  0.00
  C110                    1.00   0.31  0.00  0.00  0.62  0.00  0.00  0.07  0.00  0.00
  C125_1                  1.00   0.31  0.00  0.00  0.63  0.00  0.00  0.06  0.02  0.00
  C125_2                  1.00   0.31  0.00  0.00  0.69  0.00  0.00  0.00  0.00  0.00
  C147                    1.00   0.31  0.00  0.00  0.69  0.00  0.00  0.00  0.63  0.00
  C147_2                  1.00   0.31  0.00  0.00  0.65  0.04  0.00  0.00  0.00  0.00
  C147_5                  1.00   0.31  0.00  0.00  0.63  0.05  0.00  0.00  0.68  0.00
  C15                     1.00   0.31  0.00  0.00  0.69  0.00  0.00  0.00  0.07  0.00
  C152                    1.00   0.31  0.00  0.00  0.69  0.00  0.00  0.00  0.00  0.00
  C152_1                  1.00   0.31  0.00  0.00  0.69  0.00  0.00  0.00  0.40  0.00
  C158                    1.00   0.31  0.00  0.00  0.62  0.00  0.00  0.07  0.00  0.00
  C159                    1.00   0.31  0.00  0.00  0.68  0.00  0.00  0.00  0.01  0.00
  C160                    1.00   0.32  0.01  0.00  0.67  0.00  0.00  0.00  0.00  0.00
  C167                    1.00   0.32  0.02  0.00  0.67  0.00  0.00  0.00  0.00  0.00
  C168                    1.00   0.39  0.57  0.00  0.00  0.00  0.04  0.00  0.00  0.00
  C174                    1.00   0.31  0.00  0.00  0.69  0.00  0.00  0.00  0.07  0.00
  C18_1                   1.00   0.31  0.00  0.00  0.68  0.00  0.00  0.00  0.01  0.00
  C18_2                   1.00   0.31  0.00  0.00  0.69  0.00  0.00  0.00  0.00  0.00
  C2                      1.00   0.31  0.01  0.00  0.67  0.00  0.00  0.00  0.01  0.00
  C26                     1.00   0.31  0.06  0.00  0.55  0.00  0.00  0.08  0.57  0.00
  C27                     1.00   0.31  0.05  0.00  0.64  0.00  0.00  0.00  0.62  0.00
  C38                     1.00   0.31  0.00  0.00  0.62  0.00  0.00  0.07  0.00  0.00
  C47                     1.00   0.31  0.00  0.00  0.69  0.00  0.00  0.00  0.08  0.00
  C57                     1.00   0.32  0.00  0.00  0.68  0.00  0.00  0.00  0.00  0.00
  C62                     1.00   0.31  0.00  0.00  0.68  0.00  0.00  0.00  0.00  0.00
  C64                     1.00   0.31  0.00  0.00  0.69  0.00  0.00  0.00  0.08  0.00
  C64_2                   1.00   0.31  0.00  0.00  0.69  0.00  0.00  0.00  0.07  0.00
  C68_1                   1.00   0.31  0.00  0.00  0.69  0.00  0.00  0.00  0.00  0.00
  C68_2                   1.00   0.31  0.00  0.00  0.68  0.00  0.00  0.00  0.03  0.00
  C69                     1.00   0.31  0.00  0.00  0.62  0.00  0.00  0.07  0.00  0.00
  C70_1                   1.00   0.32  0.01  0.00  0.67  0.00  0.00  0.00  0.00  0.00
  C70_2                   1.00   0.00  0.00  0.00  1.00  0.00  0.00  0.00  0.00  0.00
  C78                     1.00   0.31  0.00  0.00  0.69  0.00  0.00  0.00  0.01  0.00
  C84                     1.00   0.31  0.00  0.00  0.69  0.00  0.00  0.00  0.00  0.00
  C85                     1.00   0.31  0.01  0.00  0.68  0.00  0.00  0.00  0.00  0.00
  C86                     1.00   0.31  0.00  0.00  0.69  0.00  0.00  0.00  0.01  0.00
  C90_1                   1.00   0.31  0.00  0.00  0.69  0.00  0.00  0.00  0.05  0.00
  C90_2                   1.00   0.32  0.00  0.00  0.62  0.00  0.00  0.07  0.01  0.00
  C96                     1.00   0.31  0.00  0.00  0.69  0.00  0.00  0.00  0.18  0.00
  
  
  *************************
  Conduit Surcharge Summary
  *************************
  
  ----------------------------------------------------------------------------
                                                           Hours        Hours 
                         --------- Hours Full --------   Above Full   Capacity
  Conduit                Both Ends  Upstream  Dnstream   Normal Flow   Limited
  ----------------------------------------------------------------------------
  C103_3                      0.01      0.01      1.09      0.01         0.01
  C103_4                      1.09      1.09      2.30      0.01         0.01
  C110                        2.62      2.62      3.86      0.01         0.01
  C125_1                      0.01      0.01     29.34      0.01         0.01
  C147                        0.01      0.01      0.03      0.01         0.01
  C147_2                      0.03      0.03      1.11      0.01         0.01
  C15                         1.36      1.36      3.42      0.01         0.01
  C158                        3.42      3.42      3.68      0.01         0.01
  C26                         0.01      0.01      2.93      0.01         0.01
  C27                         0.01      0.01      1.57      0.01         0.01
  C38                         3.44      3.44      4.39      0.01         0.01
  C47                         0.03      0.03      1.36      0.01         0.01
  C64                         0.01      0.01      0.74      0.01         0.01
  C64_2                       0.74      0.74      2.37      0.01         0.01
  C68_1                       2.36      2.36      2.53      0.01         0.01
  C68_2                       2.52      2.53      2.62      0.01         0.03
  C69                         2.61      2.61      2.93      0.01         0.01
  C90_1                       0.83      0.83      1.83      0.01         0.01
  C90_2                       1.83      1.83      4.43      0.01         0.01
  

  Analysis begun on:  Tue Jun 17 02:44:56 2025
  Analysis ended on:  Tue Jun 17 02:44:58 2025
  Total elapsed time: 00:00:02