
  EPA STORM WATER MANAGEMENT MODEL - VERSION 5.2 (Build 5.2.4)
  PYSWMM TOOLKIT API - VERSION v1.0 (2024-04-17)
  ------------------------------------------------------------

  WARNING 04: minimum elevation drop used for Conduit C70_2
  WARNING 04: minimum elevation drop used for Conduit C85
  
  *************
  Element Count
  *************
  Number of rain gages ...... 1
  Number of subcatchments ... 39
  Number of nodes ........... 43
  Number of links ........... 42
  Number of pollutants ...... 0
  Number of land uses ....... 0
  
  
  ****************
  Raingage Summary
  ****************
                                                      Data       Recording
  Name                 Data Source                    Type       Interval 
  ------------------------------------------------------------------------
  rain_gage            rain_gage_timeseries           INTENSITY   15 min.
  
  
  ********************
  Subcatchment Summary
  ********************
  Name                       Area     Width   %Imperv    %Slope Rain Gage            Outlet              
  -----------------------------------------------------------------------------------------------------------
  Sub_1                      2.62    272.79     55.00    3.9580 rain_gage            J89                 
  Sub_10                     2.19    296.41     77.00    2.4860 rain_gage            J12                 
  Sub_11                     0.67    130.53     57.00    5.0240 rain_gage            J6                  
  Sub_12                     5.31    283.97     49.00    3.4940 rain_gage            J12                 
  Sub_13                     4.38    341.66     50.00    2.9930 rain_gage            J2                  
  Sub_14                    14.91    412.40     52.00    3.9710 rain_gage            J155                
  Sub_15                     3.68    325.75     59.00    4.8800 rain_gage            J96                 
  Sub_16                     2.81    372.64     48.00    3.5770 rain_gage            J32                 
  Sub_17                     4.94    458.98     41.00    4.7410 rain_gage            J30                 
  Sub_18                     1.52    250.00     79.00    2.3090 rain_gage            J8                  
  Sub_19                     2.15    372.00     78.00    3.4760 rain_gage            J121                
  Sub_2                      4.81    406.94     64.00    3.8880 rain_gage            J6                  
  Sub_20                    11.54    261.37     57.00    3.9380 rain_gage            J13                 
  Sub_21                     2.48    159.75     71.00    3.2870 rain_gage            J46                 
  Sub_22                     0.94    200.00     69.00    3.2890 rain_gage            J118                
  Sub_23                     2.95    250.00     63.00    3.6520 rain_gage            J103                
  Sub_24                     5.93    412.94     59.00    3.2030 rain_gage            J4                  
  Sub_25                     3.38    300.00     42.00    3.1260 rain_gage            J52                 
  Sub_26                     6.44    408.85     60.00    3.6440 rain_gage            J1                  
  Sub_27                     2.29    250.00     67.00    3.4680 rain_gage            J118                
  Sub_28                    10.61    229.01     71.00    3.1810 rain_gage            J43                 
  Sub_29                     4.46    300.00     76.00    3.1960 rain_gage            J7                  
  Sub_3                      2.79    466.00     72.00    3.7700 rain_gage            outfall             
  Sub_30                     2.64    390.64     74.00    3.0810 rain_gage            J57                 
  Sub_31                     2.90    292.33     72.00    2.7780 rain_gage            J156                
  Sub_32                     7.63    310.58     77.00    2.8180 rain_gage            J126                
  Sub_33                     3.19    461.41     83.00    3.0790 rain_gage            J63                 
  Sub_34                     2.29    250.00     65.00    2.6240 rain_gage            J5                  
  Sub_35                     2.76    217.64     70.00    2.8170 rain_gage            J3                  
  Sub_36                     1.43    235.88     50.00    2.2300 rain_gage            J70                 
  Sub_37                     1.87    251.70     78.00    3.2300 rain_gage            J71                 
  Sub_38                     4.37    354.85     73.00    3.2410 rain_gage            J23                 
  Sub_39                    11.94    244.72     56.00    2.9530 rain_gage            J147                
  Sub_4                      2.18    358.74     82.00    3.9740 rain_gage            J11                 
  Sub_5                      2.02    268.69     96.00    3.0480 rain_gage            J25                 
  Sub_6                      1.69    314.60     85.00    3.7140 rain_gage            J26                 
  Sub_7                      0.86    147.58     75.00    3.3650 rain_gage            J17                 
  Sub_8                      0.37     73.53     39.00    3.1440 rain_gage            J10                 
  Sub_9                      4.52    345.46     42.00    3.8900 rain_gage            J9                  


  *******************
  LID Control Summary
  *******************
                                   No. of        Unit        Unit      % Area    % Imperv      % Perv
  Subcatchment     LID Control      Units        Area       Width     Covered     Treated     Treated
  ---------------------------------------------------------------------------------------------------
  Sub_5            rain_barrel         10        2.58        0.00        0.03        3.56        0.00
  
  
  ************
  Node Summary
  ************
                                           Invert      Max.    Ponded    External
  Name                 Type                 Elev.     Depth      Area    Inflow  
  -------------------------------------------------------------------------------
  J1                   JUNCTION             -6.11     11.75       0.0
  J10                  JUNCTION             -6.30     10.18       0.0
  J103                 JUNCTION             -6.19     10.56       0.0
  J104                 JUNCTION             -6.22     10.06       0.0
  J11                  JUNCTION              0.00      4.57       0.0
  J118                 JUNCTION             -6.18     12.12       0.0
  J12                  JUNCTION             -1.49      6.08       0.0
  J121                 JUNCTION             -1.01      9.50       0.0
  J126                 JUNCTION              2.71      5.20       0.0
  J13                  JUNCTION             -6.14     12.38       0.0
  J14                  JUNCTION             -6.30     10.18       0.0
  J147                 JUNCTION              2.00      4.84       0.0
  J151                 JUNCTION             -6.29     10.14       0.0
  J156                 JUNCTION              2.00      6.65       0.0
  J17                  JUNCTION             -2.21      6.73       0.0
  J18                  JUNCTION             -6.29     10.21       0.0
  J2                   JUNCTION             -0.37      7.68       0.0
  J23                  JUNCTION              1.98      4.73       0.0
  J25                  JUNCTION             -0.96      9.42       0.0
  J26                  JUNCTION             -1.44      7.94       0.0
  J27                  JUNCTION             -2.16      4.90       0.0
  J3                   JUNCTION             -0.57      9.12       0.0
  J30                  JUNCTION             -6.26      9.78       0.0
  J32                  JUNCTION             -6.23     10.58       0.0
  J4                   JUNCTION             -1.20      7.63       0.0
  J43                  JUNCTION             -1.70      8.65       0.0
  J44                  JUNCTION             -6.18     12.57       0.0
  J46                  JUNCTION             -6.16     11.43       0.0
  J5                   JUNCTION             -1.09      8.97       0.0
  J50                  JUNCTION             -6.15     11.76       0.0
  J52                  JUNCTION             -6.13     12.49       0.0
  J57                  JUNCTION             -1.59      8.82       0.0
  J6                   JUNCTION             -2.09      5.83       0.0
  J63                  JUNCTION              1.87      4.03       0.0
  J7                   JUNCTION             -0.42      6.53       0.0
  J70                  JUNCTION              2.00      7.06       0.0
  J71                  JUNCTION              1.80      7.50       0.0
  J8                   JUNCTION             -1.37      8.64       0.0
  J89                  JUNCTION             -1.00      6.26       0.0
  J9                   JUNCTION             -2.20      4.44       0.0
  J96                  JUNCTION             -1.97      5.15       0.0
  outfall              OUTFALL              -6.30     10.00       0.0
  J155                 STORAGE              -4.00      7.18       0.0
  
  
  ************
  Link Summary
  ************
  Name             From Node        To Node          Type            Length    %Slope Roughness
  ---------------------------------------------------------------------------------------------
  C103_1           J71              J3               CONDUIT          380.3    0.6233    0.0100
  C103_3           J3               J5               CONDUIT          261.0    0.2000    0.0100
  C103_4           J5               J57              CONDUIT          252.8    0.2000    0.0100
  C108             J70              J71              CONDUIT          121.0    0.1612    0.0100
  C110             J43              J44              CONDUIT          240.0    0.1667    0.0100
  C125_1           J57              J1               CONDUIT          257.8    0.9757    0.0100
  C125_2           J1               J52              CONDUIT          254.2    0.0100    0.0100
  C147             J7               J4               CONDUIT          393.0    0.2000    0.0100
  C147_2           J4               J57              CONDUIT          194.0    0.2000    0.0100
  C147_5           J63              J7               CONDUIT          273.4    0.8371    0.0100
  C15              J26              J17              CONDUIT          386.0    0.2000    0.0100
  C152             J23              J63              CONDUIT          346.2    0.0323    0.0100
  C152_1           J147             J23              CONDUIT           56.8    0.0317    0.0100
  C158             J17              J151             CONDUIT           40.0    0.2000    0.0100
  C159             J151             J10              CONDUIT           65.0    0.0100    0.0100
  C160             J18              J151             CONDUIT           65.0    0.0100    0.0100
  C167             J104             J32              CONDUIT           77.0    0.0100    0.0100
  C168             J155             J104             CONDUIT           15.0    6.6815    0.0100
  C174             J156             J71              CONDUIT          226.0    0.0863    0.0100
  C18_1            J52              J13              CONDUIT           24.9    0.0104    0.0100
  C18_2            J13              J50              CONDUIT          142.9    0.0104    0.0100
  C2               J50              J46              CONDUIT           71.3    0.0100    0.0100
  C26              J11              J14              CONDUIT          445.6    0.2917    0.0100
  C27              J2               J89              CONDUIT          314.9    0.2000    0.0100
  C38              J96              J32              CONDUIT          130.0    0.1938    0.0100
  C47              J25              J26              CONDUIT          241.0    0.2000    0.0100
  C57              J103             J104             CONDUIT          262.0    0.0100    0.0100
  C62              J32              J30              CONDUIT          305.9    0.0100    0.0100
  C64              J89              J12              CONDUIT          237.9    0.2039    0.0100
  C64_2            J12              J6               CONDUIT          303.5    0.2000    0.0100
  C68_1            J6               J27              CONDUIT           38.4    0.1808    0.0100
  C68_2            J27              J9               CONDUIT           19.2    0.1804    0.0100
  C69              J9               J10              CONDUIT           52.0    0.2000    0.0100
  C70_1            J10              J14              CONDUIT          279.9    0.0046    0.0100
  C70_2            J14              outfall          CONDUIT            5.5    0.0183    0.0100
  C78              J30              J18              CONDUIT          281.0    0.0100    0.0100
  C84              J118             J103             CONDUIT          163.0    0.0100    0.0100
  C85              J44              J118             CONDUIT            8.0    0.0125    0.0100
  C86              J46              J44              CONDUIT          189.0    0.0100    0.0100
  C90_1            J121             J8               CONDUIT          179.1    0.2000    0.0100
  C90_2            J8               J32              CONDUIT          429.7    0.2000    0.0100
  C96              J126             J63              CONDUIT          582.0    0.1436    0.0100
  
  
  *********************
  Cross Section Summary
  *********************
                                        Full     Full     Hyd.     Max.   No. of     Full
  Conduit          Shape               Depth     Area     Rad.    Width  Barrels     Flow
  ---------------------------------------------------------------------------------------
  C103_1           CIRCULAR             1.50     1.77     0.38     1.50        1    10.78
  C103_3           CIRCULAR             1.50     1.77     0.38     1.50        1     6.11
  C103_4           CIRCULAR             1.50     1.77     0.38     1.50        1     6.11
  C108             CIRCULAR             1.25     1.23     0.31     1.25        1     3.37
  C110             CIRCULAR             1.50     1.77     0.38     1.50        1     5.57
  C125_1           CIRCULAR             3.00     7.07     0.75     3.00        1    85.65
  C125_2           RECT_CLOSED          8.00    40.00     1.54     5.00        1    79.21
  C147             CIRCULAR             2.00     3.14     0.50     2.00        1    13.15
  C147_2           CIRCULAR             2.00     3.14     0.50     2.00        1    13.15
  C147_5           CIRCULAR             2.01     3.16     0.50     2.01        1    27.16
  C15              CIRCULAR             1.75     2.41     0.44     1.75        1     9.21
  C152             CIRCULAR             1.26     1.24     0.31     1.26        1     1.53
  C152_1           CIRCULAR             1.26     1.24     0.31     1.26        1     1.51
  C158             CIRCULAR             1.75     2.41     0.44     1.75        1     9.21
  C159             RECT_CLOSED          8.00    40.00     1.54     5.00        1    79.21
  C160             RECT_CLOSED          8.00    40.00     1.54     5.00        1    79.21
  C167             RECT_CLOSED          8.00    40.00     1.54     5.00        1    79.21
  C168             CIRCULAR             2.00     3.14     0.50     2.00        1    76.02
  C174             CIRCULAR             1.00     0.79     0.25     1.00        1     1.36
  C18_1            RECT_CLOSED          8.00    40.00     1.54     5.00        1    80.82
  C18_2            RECT_CLOSED          8.00    40.00     1.54     5.00        1    80.92
  C2               RECT_CLOSED          8.00    40.00     1.54     5.00        1    79.21
  C26              CIRCULAR             1.00     0.79     0.25     1.00        1     2.50
  C27              CIRCULAR             1.25     1.23     0.31     1.25        1     3.76
  C38              CIRCULAR             1.50     1.77     0.38     1.50        1     6.01
  C47              CIRCULAR             1.75     2.41     0.44     1.75        1     9.21
  C57              RECT_CLOSED          8.00    40.00     1.54     5.00        1    79.21
  C62              RECT_CLOSED          8.00    40.00     1.54     5.00        1    79.21
  C64              CIRCULAR             2.00     3.14     0.50     2.00        1    13.28
  C64_2            CIRCULAR             2.00     3.14     0.50     2.00        1    13.15
  C68_1            CIRCULAR             2.00     3.14     0.50     2.00        1    12.51
  C68_2            CIRCULAR             2.00     3.14     0.50     2.00        1    12.49
  C69              CIRCULAR             2.00     3.14     0.50     2.00        1    13.15
  C70_1            RECT_CLOSED         10.00    50.00     1.67     5.00        1    70.50
  C70_2            RECT_CLOSED         10.00    50.00     1.67     5.00        1   141.22
  C78              RECT_CLOSED          8.00    40.00     1.54     5.00        1    79.21
  C84              RECT_CLOSED          8.00    40.00     1.54     5.00        1    79.21
  C85              RECT_CLOSED          8.00    40.00     1.54     5.00        1    88.56
  C86              RECT_CLOSED          8.00    40.00     1.54     5.00        1    79.21
  C90_1            RECT_CLOSED          1.50     1.36     0.28     0.91        1     3.91
  C90_2            RECT_CLOSED          1.50     1.36     0.28     0.91        1     3.91
  C96              CIRCULAR             1.25     1.23     0.31     1.25        1     3.18
  
  
  ****************
  Analysis Options
  ****************
  Flow Units ............... CFS
  Process Models:
    Rainfall/Runoff ........ YES
    RDII ................... NO
    Snowmelt ............... NO
    Groundwater ............ NO
    Flow Routing ........... YES
    Ponding Allowed ........ NO
    Water Quality .......... NO
  Infiltration Method ...... GREEN_AMPT
  Flow Routing Method ...... DYNWAVE
  Surcharge Method ......... EXTRAN
  Starting Date ............ 05/31/2025 12:00:00
  Ending Date .............. 06/02/2025 12:00:00
  Antecedent Dry Days ...... 0.0
  Report Time Step ......... 00:05:00
  Wet Time Step ............ 00:05:00
  Dry Time Step ............ 00:05:00
  Routing Time Step ........ 5.00 sec
  Variable Time Step ....... YES
  Maximum Trials ........... 8
  Number of Threads ........ 2
  Head Tolerance ........... 0.005000 ft
  
  
  *********************
  Control Actions Taken
  *********************

  
  **************************        Volume         Depth
  Runoff Quantity Continuity     acre-feet        inches
  **************************     ---------       -------
  Total Precipitation ......        15.548         1.193
  Evaporation Loss .........         0.000         0.000
  Infiltration Loss ........         8.030         0.616
  Surface Runoff ...........         7.217         0.554
  Final Storage ............         0.307         0.024
  Continuity Error (%) .....        -0.045
  
  
  **************************        Volume        Volume
  Flow Routing Continuity        acre-feet      10^6 gal
  **************************     ---------     ---------
  Dry Weather Inflow .......         0.000         0.000
  Wet Weather Inflow .......         7.217         2.352
  Groundwater Inflow .......         0.000         0.000
  RDII Inflow ..............         0.000         0.000
  External Inflow ..........         0.000         0.000
  External Outflow .........         3.824         1.246
  Flooding Loss ............         0.000         0.000
  Evaporation Loss .........         0.000         0.000
  Exfiltration Loss ........         0.000         0.000
  Initial Stored Volume ....         1.620         0.528
  Final Stored Volume ......         5.006         1.631
  Continuity Error (%) .....         0.075
  
  
  *************************
  Highest Continuity Errors
  *************************
  Node J30 (4.59%)
  Node J1 (3.45%)
  Node J103 (3.38%)
  Node J52 (2.96%)
  Node J32 (2.95%)
  
  
  ***************************
  Time-Step Critical Elements
  ***************************
  Link C85 (25.36%)
  Link C70_2 (23.14%)
  Link C168 (9.34%)
  Link C68_2 (1.44%)
  
  
  ********************************
  Highest Flow Instability Indexes
  ********************************
  Link C85 (22)
  Link C68_2 (22)
  Link C84 (18)
  Link C86 (16)
  Link C2 (14)
  
  
  *********************************
  Most Frequent Nonconverging Nodes
  *********************************
  Node outfall (5.93%)
  Node J118 (5.12%)
  Node J44 (0.88%)
  Node J4 (0.20%)
  Node J26 (0.12%)
  
  
  *************************
  Routing Time Step Summary
  *************************
  Minimum Time Step           :     0.50 sec
  Average Time Step           :     2.63 sec
  Maximum Time Step           :     5.00 sec
  % of Time in Steady State   :     0.00
  Average Iterations per Step :     3.12
  % of Steps Not Converging   :     5.93
  Time Step Frequencies       :
      5.000 -  3.155 sec      :    43.95 %
      3.155 -  1.991 sec      :     6.06 %
      1.991 -  1.256 sec      :     2.82 %
      1.256 -  0.792 sec      :     1.86 %
      0.792 -  0.500 sec      :    45.32 %
  
  
  ***************************
  Subcatchment Runoff Summary
  ***************************
  
  ------------------------------------------------------------------------------------------------------------------------------
                            Total      Total      Total      Total     Imperv       Perv      Total       Total     Peak  Runoff
                           Precip      Runon       Evap      Infil     Runoff     Runoff     Runoff      Runoff   Runoff   Coeff
  Subcatchment                 in         in         in         in         in         in         in    10^6 gal      CFS
  ------------------------------------------------------------------------------------------------------------------------------
  Sub_1                      1.19       0.00       0.00       0.73       0.64       0.00       0.44        0.03     0.50   0.373
  Sub_10                     1.19       0.00       0.00       0.29       0.89       0.25       0.87        0.05     0.94   0.729
  Sub_11                     1.19       0.00       0.00       0.71       0.66       0.00       0.46        0.01     0.13   0.387
  Sub_12                     1.19       0.00       0.00       0.78       0.57       0.00       0.40        0.06     0.91   0.332
  Sub_13                     1.19       0.00       0.00       0.77       0.58       0.00       0.40        0.05     0.76   0.339
  Sub_14                     1.19       0.00       0.00       0.75       0.60       0.00       0.42        0.17     2.70   0.353
  Sub_15                     1.19       0.00       0.00       0.69       0.68       0.00       0.48        0.05     0.76   0.400
  Sub_16                     1.19       0.00       0.00       0.61       0.55       0.18       0.57        0.04     0.87   0.475
  Sub_17                     1.19       0.00       0.00       0.85       0.47       0.00       0.33        0.04     0.71   0.278
  Sub_18                     1.19       0.00       0.00       0.43       0.91       0.09       0.73        0.03     0.55   0.612
  Sub_19                     1.19       0.00       0.00       0.45       0.90       0.08       0.71        0.04     0.77   0.599
  Sub_2                      1.19       0.00       0.00       0.44       0.74       0.21       0.73        0.09     1.80   0.610
  Sub_20                     1.19       0.00       0.00       0.71       0.66       0.00       0.46        0.14     2.28   0.387
  Sub_21                     1.19       0.00       0.00       0.56       0.82       0.03       0.61        0.04     0.65   0.507
  Sub_22                     1.19       0.00       0.00       0.38       0.80       0.23       0.79        0.02     0.38   0.661
  Sub_23                     1.19       0.00       0.00       0.66       0.73       0.00       0.51        0.04     0.65   0.428
  Sub_24                     1.19       0.00       0.00       0.69       0.68       0.00       0.48        0.08     1.22   0.400
  Sub_25                     1.19       0.00       0.00       0.68       0.49       0.16       0.50        0.05     0.89   0.415
  Sub_26                     1.19       0.00       0.00       0.69       0.69       0.00       0.49        0.08     1.35   0.407
  Sub_27                     1.19       0.00       0.00       0.61       0.77       0.01       0.56        0.03     0.53   0.466
  Sub_28                     1.19       0.00       0.00       0.57       0.82       0.02       0.59        0.17     2.61   0.497
  Sub_29                     1.19       0.00       0.00       0.49       0.88       0.06       0.68        0.08     1.40   0.568
  Sub_3                      1.19       0.00       0.00       0.35       0.83       0.24       0.82        0.06     1.16   0.686
  Sub_30                     1.19       0.00       0.00       0.51       0.86       0.06       0.65        0.05     0.82   0.548
  Sub_31                     1.19       0.00       0.00       0.55       0.83       0.04       0.62        0.05     0.81   0.520
  Sub_32                     1.19       0.00       0.00       0.48       0.89       0.07       0.69        0.14     2.38   0.577
  Sub_33                     1.19       0.00       0.00       0.37       0.96       0.13       0.80        0.07     1.26   0.668
  Sub_34                     1.19       0.00       0.00       0.64       0.75       0.00       0.53        0.03     0.52   0.445
  Sub_35                     1.19       0.00       0.00       0.57       0.81       0.03       0.59        0.04     0.71   0.497
  Sub_36                     1.19       0.00       0.00       0.77       0.58       0.00       0.40        0.02     0.25   0.339
  Sub_37                     1.19       0.00       0.00       0.45       0.90       0.08       0.72        0.04     0.66   0.600
  Sub_38                     1.19       0.00       0.00       0.53       0.84       0.04       0.63        0.08     1.26   0.531
  Sub_39                     1.19       0.00       0.00       0.72       0.65       0.00       0.45        0.15     2.32   0.380
  Sub_4                      1.19       0.00       0.00       0.38       0.95       0.12       0.78        0.05     0.85   0.655
  Sub_5                      1.19       0.00       0.00       0.11       1.11       0.29       1.04        0.06     0.96   0.873
  Sub_6                      1.19       0.00       0.00       0.33       0.98       0.15       0.83        0.04     0.69   0.699
  Sub_7                      1.19       0.00       0.00       0.49       0.87       0.06       0.67        0.02     0.28   0.562
  Sub_8                      1.19       0.00       0.00       0.86       0.45       0.00       0.32        0.00     0.05   0.265
  Sub_9                      1.19       0.00       0.00       0.68       0.49       0.15       0.49        0.06     1.19   0.414
  

  ***********************
  LID Performance Summary
  ***********************

  --------------------------------------------------------------------------------------------------------------------
                                         Total      Evap     Infil   Surface    Drain    Initial     Final  Continuity
                                        Inflow      Loss      Loss   Outflow   Outflow   Storage   Storage       Error
  Subcatchment      LID Control             in        in        in        in        in        in        in           %
  --------------------------------------------------------------------------------------------------------------------
  Sub_5             rain_barrel          94.08      0.00      0.00     59.83      0.00      0.00     34.25       -0.00
  
  ******************
  Node Depth Summary
  ******************
  
  ---------------------------------------------------------------------------------
                                 Average  Maximum  Maximum  Time of Max    Reported
                                   Depth    Depth      HGL   Occurrence   Max Depth
  Node                 Type         Feet     Feet     Feet  days hr:min        Feet
  ---------------------------------------------------------------------------------
  J1                   JUNCTION     4.74     7.38     1.27     0  18:54        7.38
  J10                  JUNCTION     4.89     7.50     1.20     0  18:15        7.50
  J103                 JUNCTION     4.80     7.42     1.22     0  18:54        7.39
  J104                 JUNCTION     4.83     7.46     1.24     0  18:53        7.42
  J11                  JUNCTION     0.33     4.57     4.57     0  17:50        1.61
  J118                 JUNCTION     4.79     7.40     1.22     0  18:55        7.38
  J12                  JUNCTION     1.17     6.08     4.59     0  17:47        2.76
  J121                 JUNCTION     0.80     5.32     4.31     0  17:48        2.32
  J126                 JUNCTION     0.24     0.83     3.54     0  18:30        0.83
  J13                  JUNCTION     4.76     7.38     1.24     0  18:55        7.37
  J14                  JUNCTION     4.89     7.49     1.19     0  18:11        7.49
  J147                 JUNCTION     0.41     1.42     3.42     0  18:15        1.42
  J151                 JUNCTION     4.88     7.50     1.20     0  18:15        7.48
  J156                 JUNCTION     0.17     0.55     2.55     0  18:30        0.55
  J17                  JUNCTION     1.70     3.82     1.61     0  17:50        3.41
  J18                  JUNCTION     4.88     7.49     1.20     0  18:15        7.48
  J2                   JUNCTION     0.47     6.47     6.10     0  17:54        1.68
  J23                  JUNCTION     0.42     1.39     3.37     0  18:15        1.39
  J25                  JUNCTION     0.76     8.40     7.44     0  17:50        2.18
  J26                  JUNCTION     1.12     7.94     6.50     0  17:50        2.66
  J27                  JUNCTION     1.68     3.45     1.29     0  19:05        3.39
  J3                   JUNCTION     0.58     3.74     3.17     0  19:04        2.02
  J30                  JUNCTION     4.86     7.46     1.21     0  18:54        7.45
  J32                  JUNCTION     4.83     7.47     1.24     0  18:53        7.43
  J4                   JUNCTION     1.02     7.63     6.42     0  17:51        2.67
  J43                  JUNCTION     1.34     2.99     1.29     0  18:54        2.99
  J44                  JUNCTION     4.79     7.40     1.22     0  18:55        7.38
  J46                  JUNCTION     4.78     7.40     1.24     0  18:55        7.37
  J5                   JUNCTION     0.89     8.29     7.20     0  17:47        2.46
  J50                  JUNCTION     4.77     7.39     1.24     0  18:55        7.37
  J52                  JUNCTION     4.76     7.37     1.24     0  18:55        7.37
  J57                  JUNCTION     1.25     2.95     1.35     0  18:55        2.86
  J6                   JUNCTION     1.63     3.63     1.53     0  17:48        3.33
  J63                  JUNCTION     0.22     0.70     2.57     0  18:16        0.70
  J7                   JUNCTION     0.60     2.21     1.79     0  18:14        2.21
  J70                  JUNCTION     0.07     0.23     2.23     0  18:15        0.23
  J71                  JUNCTION     0.12     0.40     2.21     0  18:30        0.40
  J8                   JUNCTION     1.08     8.64     7.27     0  17:45        2.67
  J89                  JUNCTION     0.80     3.06     2.06     0  19:01        2.28
  J9                   JUNCTION     1.70     3.43     1.23     0  18:54        3.42
  J96                  JUNCTION     1.51     3.22     1.26     0  18:53        3.17
  outfall              OUTFALL      6.74     7.50     1.20     0  18:00        7.50
  J155                 STORAGE      3.53     5.13     1.13     0  18:58        5.11
  
  
  *******************
  Node Inflow Summary
  *******************
  
  -------------------------------------------------------------------------------------------------
                                  Maximum  Maximum                  Lateral       Total        Flow
                                  Lateral    Total  Time of Max      Inflow      Inflow     Balance
                                   Inflow   Inflow   Occurrence      Volume      Volume       Error
  Node                 Type           CFS      CFS  days hr:min    10^6 gal    10^6 gal     Percent
  -------------------------------------------------------------------------------------------------
  J1                   JUNCTION      1.35    14.69     0  18:15      0.0849       0.922       3.575
  J10                  JUNCTION      0.05    47.97     0  19:03     0.00315        1.43       2.555
  J103                 JUNCTION      0.65    25.14     0  18:56      0.0409        1.28       3.496
  J104                 JUNCTION      0.00    39.91     0  19:01           0        1.97       1.786
  J11                  JUNCTION      0.85     0.85     0  18:15      0.0461      0.0462       0.708
  J118                 JUNCTION      0.92    24.37     0  18:56      0.0548        1.57      -0.209
  J12                  JUNCTION      1.84     3.24     0  17:52       0.109       0.197       0.993
  J121                 JUNCTION      0.77     0.77     0  18:15      0.0418      0.0441       0.274
  J126                 JUNCTION      2.38     2.38     0  18:30       0.143       0.143      -0.002
  J13                  JUNCTION      2.28    18.21     0  18:18       0.144        1.06       1.605
  J14                  JUNCTION      0.00    48.90     0  19:03           0        1.24       2.458
  J147                 JUNCTION      2.32     2.32     0  18:15       0.147       0.147      -0.002
  J151                 JUNCTION      0.00    44.09     0  19:03           0        1.32       1.046
  J156                 JUNCTION      0.81     0.81     0  18:30      0.0489      0.0489      -0.002
  J17                  JUNCTION      0.28     2.19     0  17:49      0.0156       0.125       2.783
  J18                  JUNCTION      0.00    42.88     0  19:03           0        1.27       2.890
  J2                   JUNCTION      0.76     0.76     0  18:15      0.0481      0.0488       0.040
  J23                  JUNCTION      1.26     3.52     0  18:15      0.0751       0.222      -0.004
  J25                  JUNCTION      0.96     1.38     0  17:44       0.057      0.0597       0.089
  J26                  JUNCTION      0.69     2.07     0  17:37      0.0382       0.103       1.898
  J27                  JUNCTION      0.00     5.04     0  18:14           0       0.298      -0.224
  J3                   JUNCTION      0.71     2.39     0  18:30      0.0444       0.147       0.009
  J30                  JUNCTION      0.71    41.17     0  19:03      0.0445        1.31       4.806
  J32                  JUNCTION      0.87    42.04     0  19:01      0.0432         1.4       3.037
  J4                   JUNCTION      1.22     9.63     0  18:15      0.0769       0.596       0.232
  J43                  JUNCTION      2.61     2.61     0  18:15       0.171       0.172       0.912
  J44                  JUNCTION      0.00    23.43     0  18:56           0        1.54       2.795
  J46                  JUNCTION      0.65    19.70     0  18:56      0.0407        1.07       2.538
  J5                   JUNCTION      0.52     2.88     0  18:30       0.033       0.184       0.262
  J50                  JUNCTION      0.00    18.31     0  18:18           0        1.05       2.092
  J52                  JUNCTION      0.89    15.78     0  18:17      0.0454       0.943       3.045
  J57                  JUNCTION      0.82    13.30     0  18:15      0.0468       0.831       0.506
  J6                   JUNCTION      1.93     5.04     0  18:14       0.103         0.3       0.986
  J63                  JUNCTION      1.26     7.05     0  18:15      0.0691       0.434      -0.018
  J7                   JUNCTION      1.40     8.42     0  18:30       0.082       0.516      -0.028
  J70                  JUNCTION      0.25     0.25     0  18:15      0.0157      0.0157      -0.013
  J71                  JUNCTION      0.66     1.68     0  18:30      0.0364       0.101      -0.093
  J8                   JUNCTION      0.55     1.57     0  17:47        0.03      0.0781       2.578
  J89                  JUNCTION      0.50     1.92     0  17:47      0.0316      0.0852       0.324
  J9                   JUNCTION      1.19     6.11     0  18:15      0.0606        0.36       0.533
  J96                  JUNCTION      0.76     0.76     0  18:15      0.0477       0.054       1.522
  outfall              OUTFALL       1.16    49.65     0  19:03       0.062        1.25       0.000
  J155                 STORAGE       2.70    36.98     0  18:15        0.17        1.61      -0.005
  
  
  **********************
  Node Surcharge Summary
  **********************
  
  Surcharging occurs when water rises above the top of the highest conduit.
  ---------------------------------------------------------------------
                                               Max. Height   Min. Depth
                                   Hours       Above Crown    Below Rim
  Node                 Type      Surcharged           Feet         Feet
  ---------------------------------------------------------------------
  J11                  JUNCTION        1.43          3.566        0.000
  J12                  JUNCTION        2.58          4.079        0.000
  J121                 JUNCTION        2.65          3.817        4.179
  J147                 JUNCTION        0.94          0.160        3.429
  J17                  JUNCTION        4.75          2.073        2.910
  J2                   JUNCTION        1.72          5.216        1.218
  J23                  JUNCTION        0.85          0.136        3.337
  J25                  JUNCTION        1.96          6.652        1.016
  J26                  JUNCTION        3.02          6.190        0.000
  J27                  JUNCTION        4.02          1.454        1.449
  J3                   JUNCTION        1.65          2.238        5.383
  J4                   JUNCTION        1.98          5.627        0.000
  J43                  JUNCTION        4.10          1.493        5.657
  J5                   JUNCTION        2.80          6.786        0.680
  J6                   JUNCTION        3.87          1.627        2.207
  J7                   JUNCTION        0.78          0.203        4.322
  J8                   JUNCTION        3.37          7.137        0.000
  J89                  JUNCTION        1.34          1.058        3.203
  J9                   JUNCTION        4.08          1.428        1.012
  J96                  JUNCTION        4.77          1.725        1.928
  
  
  *********************
  Node Flooding Summary
  *********************
  
  Flooding refers to all water that overflows a node, whether it ponds or not.
  --------------------------------------------------------------------------
                                                             Total   Maximum
                                 Maximum   Time of Max       Flood    Ponded
                        Hours       Rate    Occurrence      Volume     Depth
  Node                 Flooded       CFS   days hr:min    10^6 gal      Feet
  --------------------------------------------------------------------------
  J11                     0.01      0.21      0  17:50       0.000     0.000
  J12                     0.01      1.10      0  17:47       0.000     0.000
  J26                     0.01      0.28      0  17:50       0.000     0.000
  J4                      0.01      0.91      0  17:51       0.000     0.000
  J8                      0.01      0.56      0  17:47       0.000     0.000
  
  
  **********************
  Storage Volume Summary
  **********************
  
  ------------------------------------------------------------------------------------------------
                         Average    Avg   Evap  Exfil     Maximum    Max    Time of Max    Maximum
                          Volume   Pcnt   Pcnt   Pcnt      Volume   Pcnt     Occurrence    Outflow
  Storage Unit          1000 ft³   Full   Loss   Loss    1000 ft³   Full    days hr:min        CFS
  ------------------------------------------------------------------------------------------------
  J155                   134.876   42.8    0.0    0.0     206.619   65.6       0  18:58      17.88
  
  
  ***********************
  Outfall Loading Summary
  ***********************
  
  -----------------------------------------------------------
                         Flow       Avg       Max       Total
                         Freq      Flow      Flow      Volume
  Outfall Node           Pcnt       CFS       CFS    10^6 gal
  -----------------------------------------------------------
  outfall               55.79      7.98     49.65       1.246
  -----------------------------------------------------------
  System                55.79      7.98     49.65       1.246
  
  
  ********************
  Link Flow Summary
  ********************
  
  -----------------------------------------------------------------------------
                                 Maximum  Time of Max   Maximum    Max/    Max/
                                  |Flow|   Occurrence   |Veloc|    Full    Full
  Link                 Type          CFS  days hr:min    ft/sec    Flow   Depth
  -----------------------------------------------------------------------------
  C103_1               CONDUIT      1.68     0  18:30      2.86    0.16    0.63
  C103_3               CONDUIT      2.39     0  18:30      2.83    0.39    1.00
  C103_4               CONDUIT      2.88     0  18:30      3.03    0.47    1.00
  C108                 CONDUIT      0.25     0  18:08      1.09    0.07    0.25
  C110                 CONDUIT      2.61     0  18:15      3.16    0.47    1.00
  C125_1               CONDUIT     13.37     0  18:18      7.35    0.16    0.99
  C125_2               CONDUIT     14.96     0  18:17      1.04    0.19    0.92
  C147                 CONDUIT      8.42     0  18:30      4.18    0.64    1.00
  C147_2               CONDUIT      9.63     0  18:15      5.92    0.73    1.00
  C147_5               CONDUIT      7.04     0  18:16      4.75    0.26    0.67
  C15                  CONDUIT      1.97     0  17:49      2.53    0.21    1.00
  C152                 CONDUIT      3.52     0  18:15      3.41    2.30    0.78
  C152_1               CONDUIT      2.32     0  18:15      1.87    1.53    1.00
  C158                 CONDUIT      2.19     0  17:49      2.94    0.24    1.00
  C159                 CONDUIT     44.11     0  19:03      1.20    0.56    0.94
  C160                 CONDUIT     42.94     0  19:03      1.17    0.54    0.94
  C167                 CONDUIT     40.18     0  19:01      1.10    0.51    0.93
  C168                 CONDUIT     34.29     0  18:15     13.85    0.45    0.78
  C174                 CONDUIT      0.81     0  18:30      2.21    0.60    0.47
  C18_1                CONDUIT     15.97     0  18:18      0.98    0.20    0.92
  C18_2                CONDUIT     18.31     0  18:18      1.09    0.23    0.92
  C2                   CONDUIT     19.19     0  18:56      0.99    0.24    0.92
  C26                  CONDUIT      0.85     0  18:15      2.57    0.34    1.00
  C27                  CONDUIT      0.95     0  17:49      2.19    0.25    1.00
  C38                  CONDUIT      0.79     0  17:40      2.36    0.13    1.00
  C47                  CONDUIT      1.34     0  17:49      1.98    0.15    1.00
  C57                  CONDUIT     25.45     0  18:56      0.73    0.32    0.93
  C62                  CONDUIT     40.76     0  19:03      1.11    0.51    0.93
  C64                  CONDUIT      1.47     0  17:52      1.83    0.11    1.00
  C64_2                CONDUIT      3.25     0  17:52      2.69    0.25    1.00
  C68_1                CONDUIT      5.04     0  18:14      3.31    0.40    1.00
  C68_2                CONDUIT      5.04     0  18:14      3.30    0.40    1.00
  C69                  CONDUIT      6.11     0  18:15      3.92    0.46    1.00
  C70_1                CONDUIT     48.44     0  19:03      1.32    0.69    0.75
  C70_2                CONDUIT     49.00     0  19:03      1.33    0.35    0.75
  C78                  CONDUIT     42.88     0  19:03      1.17    0.54    0.93
  C84                  CONDUIT     24.69     0  18:56      0.95    0.31    0.93
  C85                  CONDUIT     23.72     0  18:56      0.95    0.27    0.92
  C86                  CONDUIT     21.29     0  18:56      0.91    0.27    0.92
  C90_1                CONDUIT      1.16     0  17:47      1.68    0.30    1.00
  C90_2                CONDUIT      1.31     0  18:15      2.52    0.34    1.00
  C96                  CONDUIT      2.37     0  18:30      3.03    0.75    0.61
  
  
  ***************************
  Flow Classification Summary
  ***************************
  
  -------------------------------------------------------------------------------------
                      Adjusted    ---------- Fraction of Time in Flow Class ---------- 
                       /Actual         Up    Down  Sub   Sup   Up    Down  Norm  Inlet 
  Conduit               Length    Dry  Dry   Dry   Crit  Crit  Crit  Crit  Ltd   Ctrl  
  -------------------------------------------------------------------------------------
  C103_1                  1.00   0.31  0.00  0.00  0.69  0.00  0.00  0.00  0.64  0.00
  C103_3                  1.00   0.31  0.00  0.00  0.69  0.00  0.00  0.00  0.59  0.00
  C103_4                  1.00   0.31  0.00  0.00  0.69  0.00  0.00  0.00  0.03  0.00
  C108                    1.00   0.31  0.00  0.00  0.69  0.00  0.00  0.00  0.45  0.00
  C110                    1.00   0.31  0.00  0.00  0.64  0.00  0.00  0.05  0.00  0.00
  C125_1                  1.00   0.31  0.00  0.00  0.64  0.00  0.00  0.05  0.01  0.00
  C125_2                  1.00   0.31  0.00  0.00  0.69  0.00  0.00  0.00  0.00  0.00
  C147                    1.00   0.31  0.00  0.00  0.69  0.00  0.00  0.00  0.58  0.00
  C147_2                  1.00   0.31  0.00  0.00  0.66  0.03  0.00  0.00  0.00  0.00
  C147_5                  1.00   0.31  0.00  0.00  0.66  0.03  0.00  0.00  0.69  0.00
  C15                     1.00   0.31  0.00  0.00  0.69  0.00  0.00  0.00  0.05  0.00
  C152                    1.00   0.31  0.00  0.00  0.69  0.00  0.00  0.00  0.00  0.00
  C152_1                  1.00   0.31  0.00  0.00  0.69  0.00  0.00  0.00  0.36  0.00
  C158                    1.00   0.31  0.00  0.00  0.64  0.00  0.00  0.05  0.00  0.00
  C159                    1.00   0.31  0.00  0.00  0.68  0.00  0.00  0.00  0.00  0.00
  C160                    1.00   0.32  0.01  0.00  0.68  0.00  0.00  0.00  0.00  0.00
  C167                    1.00   0.31  0.01  0.00  0.67  0.00  0.00  0.00  0.00  0.00
  C168                    1.00   0.37  0.00  0.00  0.58  0.03  0.02  0.00  0.57  0.00
  C174                    1.00   0.31  0.00  0.00  0.69  0.00  0.00  0.00  0.02  0.00
  C18_1                   1.00   0.31  0.00  0.00  0.68  0.00  0.00  0.00  0.01  0.00
  C18_2                   1.00   0.31  0.00  0.00  0.69  0.00  0.00  0.00  0.00  0.00
  C2                      1.00   0.31  0.01  0.00  0.68  0.00  0.00  0.00  0.01  0.00
  C26                     1.00   0.31  0.02  0.00  0.61  0.00  0.00  0.05  0.56  0.00
  C27                     1.00   0.31  0.00  0.00  0.69  0.00  0.00  0.00  0.58  0.00
  C38                     1.00   0.31  0.00  0.00  0.64  0.00  0.00  0.05  0.00  0.00
  C47                     1.00   0.31  0.00  0.00  0.69  0.00  0.00  0.00  0.05  0.00
  C57                     1.00   0.31  0.00  0.00  0.69  0.00  0.00  0.00  0.00  0.00
  C62                     1.00   0.31  0.00  0.00  0.69  0.00  0.00  0.00  0.00  0.00
  C64                     1.00   0.31  0.00  0.00  0.69  0.00  0.00  0.00  0.05  0.00
  C64_2                   1.00   0.31  0.00  0.00  0.69  0.00  0.00  0.00  0.05  0.00
  C68_1                   1.00   0.31  0.00  0.00  0.69  0.00  0.00  0.00  0.00  0.00
  C68_2                   1.00   0.31  0.00  0.00  0.69  0.00  0.00  0.00  0.02  0.00
  C69                     1.00   0.31  0.00  0.00  0.64  0.00  0.00  0.05  0.00  0.00
  C70_1                   1.00   0.32  0.01  0.00  0.68  0.00  0.00  0.00  0.00  0.00
  C70_2                   1.00   0.00  0.00  0.00  1.00  0.00  0.00  0.00  0.00  0.00
  C78                     1.00   0.31  0.00  0.00  0.69  0.00  0.00  0.00  0.00  0.00
  C84                     1.00   0.31  0.00  0.00  0.69  0.00  0.00  0.00  0.00  0.00
  C85                     1.00   0.31  0.01  0.00  0.68  0.00  0.00  0.00  0.00  0.00
  C86                     1.00   0.31  0.00  0.00  0.69  0.00  0.00  0.00  0.01  0.00
  C90_1                   1.00   0.31  0.00  0.00  0.69  0.00  0.00  0.00  0.04  0.00
  C90_2                   1.00   0.31  0.00  0.00  0.64  0.00  0.00  0.05  0.00  0.00
  C96                     1.00   0.31  0.00  0.00  0.69  0.00  0.00  0.00  0.08  0.00
  
  
  *************************
  Conduit Surcharge Summary
  *************************
  
  ----------------------------------------------------------------------------
                                                           Hours        Hours 
                         --------- Hours Full --------   Above Full   Capacity
  Conduit                Both Ends  Upstream  Dnstream   Normal Flow   Limited
  ----------------------------------------------------------------------------
  C103_1                      0.01      0.01      1.65      0.01         0.01
  C103_3                      1.65      1.65      2.80      0.01         0.01
  C103_4                      2.80      2.80      3.83      0.01         0.01
  C110                        4.10      4.10      5.12      0.01         0.01
  C125_1                      0.01      0.01     30.45      0.01         0.01
  C147                        0.79      0.79      1.98      0.01         0.01
  C147_2                      1.98      1.98      2.86      0.01         0.01
  C147_5                      0.01      0.01      0.78      0.01         0.01
  C15                         3.02      3.02      4.75      0.01         0.01
  C152                        0.01      0.85      0.01      2.39         0.01
  C152_1                      0.85      0.94      0.85      1.75         0.85
  C158                        4.75      4.75      4.97      0.01         0.01
  C168                        0.01      0.01      1.31      0.01         0.01
  C26                         1.43      1.43      4.32      0.01         0.01
  C27                         1.72      1.72      3.15      0.01         0.01
  C38                         4.77      4.77     14.42      0.01         0.01
  C47                         1.96      1.96      3.02      0.01         0.01
  C64                         1.34      1.34      2.58      0.01         0.01
  C64_2                       2.58      2.58      3.87      0.01         0.01
  C68_1                       3.87      3.87      4.01      0.01         0.01
  C68_2                       4.01      4.01      4.08      0.01         0.01
  C69                         4.08      4.08      4.32      0.01         0.01
  C90_1                       2.65      2.65      3.37      0.01         0.01
  C90_2                       3.37      3.37     14.80      0.01         0.01
  

  Analysis begun on:  Tue Jun 17 02:22:43 2025
  Analysis ended on:  Tue Jun 17 02:22:45 2025
  Total elapsed time: 00:00:02