
  EPA STORM WATER MANAGEMENT MODEL - VERSION 5.2 (Build 5.2.4)
  PYSWMM TOOLKIT API - VERSION v1.0 (2024-04-17)
  ------------------------------------------------------------

  WARNING 04: minimum elevation drop used for Conduit C70_2
  WARNING 04: minimum elevation drop used for Conduit C85
  
  *************
  Element Count
  *************
  Number of rain gages ...... 1
  Number of subcatchments ... 39
  Number of nodes ........... 43
  Number of links ........... 42
  Number of pollutants ...... 0
  Number of land uses ....... 0
  
  
  ****************
  Raingage Summary
  ****************
                                                      Data       Recording
  Name                 Data Source                    Type       Interval 
  ------------------------------------------------------------------------
  rain_gage            rain_gage_timeseries           INTENSITY   15 min.
  
  
  ********************
  Subcatchment Summary
  ********************
  Name                       Area     Width   %Imperv    %Slope Rain Gage            Outlet              
  -----------------------------------------------------------------------------------------------------------
  Sub_1                      2.62    272.79     55.00    3.9580 rain_gage            J89                 
  Sub_10                     2.19    296.41     77.00    2.4860 rain_gage            J12                 
  Sub_11                     0.67    130.53     57.00    5.0240 rain_gage            J6                  
  Sub_12                     5.31    283.97     49.00    3.4940 rain_gage            J12                 
  Sub_13                     4.38    341.66     50.00    2.9930 rain_gage            J2                  
  Sub_14                    14.91    412.40     52.00    3.9710 rain_gage            J155                
  Sub_15                     3.68    325.75     59.00    4.8800 rain_gage            J96                 
  Sub_16                     2.81    372.64     48.00    3.5770 rain_gage            J32                 
  Sub_17                     4.94    458.98     41.00    4.7410 rain_gage            J30                 
  Sub_18                     1.52    250.00     79.00    2.3090 rain_gage            J8                  
  Sub_19                     2.15    372.00     78.00    3.4760 rain_gage            J121                
  Sub_2                      4.81    406.94     64.00    3.8880 rain_gage            J6                  
  Sub_20                    11.54    261.37     57.00    3.9380 rain_gage            J13                 
  Sub_21                     2.48    159.75     71.00    3.2870 rain_gage            J46                 
  Sub_22                     0.94    200.00     69.00    3.2890 rain_gage            J118                
  Sub_23                     2.95    250.00     63.00    3.6520 rain_gage            J103                
  Sub_24                     5.93    412.94     59.00    3.2030 rain_gage            J4                  
  Sub_25                     3.38    300.00     42.00    3.1260 rain_gage            J52                 
  Sub_26                     6.44    408.85     60.00    3.6440 rain_gage            J1                  
  Sub_27                     2.29    250.00     67.00    3.4680 rain_gage            J118                
  Sub_28                    10.61    229.01     71.00    3.1810 rain_gage            J43                 
  Sub_29                     4.46    300.00     76.00    3.1960 rain_gage            J7                  
  Sub_3                      2.79    466.00     72.00    3.7700 rain_gage            outfall             
  Sub_30                     2.64    390.64     74.00    3.0810 rain_gage            J57                 
  Sub_31                     2.90    292.33     72.00    2.7780 rain_gage            J156                
  Sub_32                     7.63    310.58     77.00    2.8180 rain_gage            J126                
  Sub_33                     3.19    461.41     83.00    3.0790 rain_gage            J63                 
  Sub_34                     2.29    250.00     65.00    2.6240 rain_gage            J5                  
  Sub_35                     2.76    217.64     70.00    2.8170 rain_gage            J3                  
  Sub_36                     1.43    235.88     50.00    2.2300 rain_gage            J70                 
  Sub_37                     1.87    251.70     78.00    3.2300 rain_gage            J71                 
  Sub_38                     4.37    354.85     73.00    3.2410 rain_gage            J23                 
  Sub_39                    11.94    244.72     56.00    2.9530 rain_gage            J147                
  Sub_4                      2.18    358.74     82.00    3.9740 rain_gage            J11                 
  Sub_5                      2.02    268.69     96.00    3.0480 rain_gage            J25                 
  Sub_6                      1.69    314.60     85.00    3.7140 rain_gage            J26                 
  Sub_7                      0.86    147.58     75.00    3.3650 rain_gage            J17                 
  Sub_8                      0.37     73.53     39.00    3.1440 rain_gage            J10                 
  Sub_9                      4.52    345.46     42.00    3.8900 rain_gage            J9                  


  *******************
  LID Control Summary
  *******************
                                   No. of        Unit        Unit      % Area    % Imperv      % Perv
  Subcatchment     LID Control      Units        Area       Width     Covered     Treated     Treated
  ---------------------------------------------------------------------------------------------------
  Sub_1            rain_garden         15      100.00        0.00        1.32        0.00       14.61
  Sub_1            rain_barrel         60        2.58        0.00        0.14       28.72        0.00
  Sub_10           rain_barrel        123        2.58        0.00        0.33       50.14        0.00
  Sub_11           rain_garden          6      100.00        0.00        2.06        0.00       23.94
  Sub_11           rain_barrel          8        2.58        0.00        0.07       14.47        0.00
  Sub_12           rain_garden         52      100.00        0.00        2.25        0.00       22.20
  Sub_12           rain_barrel        163        2.58        0.00        0.18       42.81        0.00
  Sub_13           rain_garden         28      100.00        0.00        1.47        0.00       14.82
  Sub_13           rain_barrel        167        2.58        0.00        0.23       52.08        0.00
  Sub_14           rain_garden        259      100.00        0.00        3.99        0.00       41.46
  Sub_14           rain_barrel        480        2.58        0.00        0.19       42.69        0.00
  Sub_15           rain_garden         62      100.00        0.00        3.86        0.00       47.60
  Sub_15           rain_barrel        125        2.58        0.00        0.20       39.38        0.00
  Sub_16           rain_garden          8      100.00        0.00        0.65        0.00        6.32
  Sub_16           rain_barrel         54        2.58        0.00        0.11       27.44        0.00
  Sub_17           rain_garden         52      100.00        0.00        2.41        0.00       20.48
  Sub_17           rain_barrel         91        2.58        0.00        0.11       30.87        0.00
  Sub_18           rain_garden          3      100.00        0.00        0.45        0.00       10.74
  Sub_18           rain_barrel         92        2.58        0.00        0.36       53.02        0.00
  Sub_19           rain_garden         14      100.00        0.00        1.49        0.00       34.17
  Sub_19           rain_barrel        106        2.58        0.00        0.29       43.37        0.00
  Sub_2            rain_garden         15      100.00        0.00        0.72        0.00        9.89
  Sub_2            rain_barrel        140        2.58        0.00        0.17       31.44        0.00
  Sub_20           rain_garden        122      100.00        0.00        2.43        0.00       28.21
  Sub_20           rain_barrel        361        2.58        0.00        0.19       37.80        0.00
  Sub_21           rain_garden          3      100.00        0.00        0.28        0.00        4.85
  Sub_21           rain_barrel        103        2.58        0.00        0.25       40.16        0.00
  Sub_22           rain_barrel         11        2.58        0.00        0.07       11.69        0.00
  Sub_23           rain_garden          5      100.00        0.00        0.39        0.00        5.33
  Sub_23           rain_barrel         59        2.58        0.00        0.12       21.74        0.00
  Sub_24           rain_garden         67      100.00        0.00        2.59        0.00       31.99
  Sub_24           rain_barrel        164        2.58        0.00        0.16       32.03        0.00
  Sub_25           rain_barrel         82        2.58        0.00        0.14       40.29        0.00
  Sub_26           rain_garden         26      100.00        0.00        0.93        0.00       11.50
  Sub_26           rain_barrel        224        2.58        0.00        0.21       40.07        0.00
  Sub_27           rain_garden         14      100.00        0.00        1.40        0.00       21.03
  Sub_27           rain_barrel         79        2.58        0.00        0.20       35.55        0.00
  Sub_28           rain_garden         65      100.00        0.00        1.41        0.00       23.87
  Sub_28           rain_barrel        359        2.58        0.00        0.20       33.06        0.00
  Sub_29           rain_garden         16      100.00        0.00        0.82        0.00       17.18
  Sub_29           rain_barrel        163        2.58        0.00        0.22       33.11        0.00
  Sub_3            rain_garden         10      100.00        0.00        0.82        0.00       14.43
  Sub_3            rain_barrel         41        2.58        0.00        0.09       14.15        0.00
  Sub_30           rain_garden          9      100.00        0.00        0.78        0.00       15.03
  Sub_30           rain_barrel        101        2.58        0.00        0.23       35.75        0.00
  Sub_31           rain_garden         36      100.00        0.00        2.85        0.00       50.13
  Sub_31           rain_barrel         89        2.58        0.00        0.18       29.48        0.00
  Sub_32           rain_garden         35      100.00        0.00        1.05        0.00       23.00
  Sub_32           rain_barrel        328        2.58        0.00        0.25       38.35        0.00
  Sub_33           rain_garden         10      100.00        0.00        0.72        0.00       21.52
  Sub_33           rain_barrel        125        2.58        0.00        0.23       32.35        0.00
  Sub_34           rain_garden         36      100.00        0.00        3.61        0.00       51.87
  Sub_34           rain_barrel         69        2.58        0.00        0.18       31.90        0.00
  Sub_35           rain_garden         35      100.00        0.00        2.91        0.00       48.42
  Sub_35           rain_barrel         77        2.58        0.00        0.17       27.45        0.00
  Sub_36           rain_garden         36      100.00        0.00        5.77        0.00       57.21
  Sub_36           rain_barrel         43        2.58        0.00        0.18       41.70        0.00
  Sub_37           rain_garden         17      100.00        0.00        2.08        0.00       46.98
  Sub_37           rain_barrel         62        2.58        0.00        0.20       29.26        0.00
  Sub_38           rain_garden         30      100.00        0.00        1.58        0.00       29.59
  Sub_38           rain_barrel        106        2.58        0.00        0.14       22.80        0.00
  Sub_39           rain_garden        207      100.00        0.00        3.98        0.00       45.51
  Sub_39           rain_barrel        252        2.58        0.00        0.12       25.82        0.00
  Sub_4            rain_garden          3      100.00        0.00        0.32        0.00        8.76
  Sub_4            rain_barrel         75        2.58        0.00        0.20       28.96        0.00
  Sub_5            rain_garden          3      100.00        0.00        0.34        0.00       38.08
  Sub_5            rain_barrel         46        2.58        0.00        0.14       16.36        0.00
  Sub_6            rain_garden         15      100.00        0.00        2.04        0.00       69.40
  Sub_6            rain_barrel         51        2.58        0.00        0.18       24.61        0.00
  Sub_7            rain_barrel          1        2.58        0.00        0.01        1.06        0.00
  Sub_9            rain_garden         33      100.00        0.00        1.68        0.00       14.55
  Sub_9            rain_barrel         94        2.58        0.00        0.12       33.85        0.00
  
  
  ************
  Node Summary
  ************
                                           Invert      Max.    Ponded    External
  Name                 Type                 Elev.     Depth      Area    Inflow  
  -------------------------------------------------------------------------------
  J1                   JUNCTION             -6.11     11.75       0.0
  J10                  JUNCTION             -6.30     10.18       0.0
  J103                 JUNCTION             -6.19     10.56       0.0
  J104                 JUNCTION             -6.22     10.06       0.0
  J11                  JUNCTION              0.00      4.57       0.0
  J118                 JUNCTION             -6.18     12.12       0.0
  J12                  JUNCTION             -1.49      6.08       0.0
  J121                 JUNCTION             -1.01      9.50       0.0
  J126                 JUNCTION              2.71      5.20       0.0
  J13                  JUNCTION             -6.14     12.38       0.0
  J14                  JUNCTION             -6.30     10.18       0.0
  J147                 JUNCTION              2.00      4.84       0.0
  J151                 JUNCTION             -6.29     10.14       0.0
  J156                 JUNCTION              2.00      6.65       0.0
  J17                  JUNCTION             -2.21      6.73       0.0
  J18                  JUNCTION             -6.29     10.21       0.0
  J2                   JUNCTION             -0.37      7.68       0.0
  J23                  JUNCTION              1.98      4.73       0.0
  J25                  JUNCTION             -0.96      9.42       0.0
  J26                  JUNCTION             -1.44      7.94       0.0
  J27                  JUNCTION             -2.16      4.90       0.0
  J3                   JUNCTION             -0.57      9.12       0.0
  J30                  JUNCTION             -6.26      9.78       0.0
  J32                  JUNCTION             -6.23     10.58       0.0
  J4                   JUNCTION             -1.20      7.63       0.0
  J43                  JUNCTION             -1.70      8.65       0.0
  J44                  JUNCTION             -6.18     12.57       0.0
  J46                  JUNCTION             -6.16     11.43       0.0
  J5                   JUNCTION             -1.09      8.97       0.0
  J50                  JUNCTION             -6.15     11.76       0.0
  J52                  JUNCTION             -6.13     12.49       0.0
  J57                  JUNCTION             -1.59      8.82       0.0
  J6                   JUNCTION             -2.09      5.83       0.0
  J63                  JUNCTION              1.87      4.03       0.0
  J7                   JUNCTION             -0.42      6.53       0.0
  J70                  JUNCTION              2.00      7.06       0.0
  J71                  JUNCTION              1.80      7.50       0.0
  J8                   JUNCTION             -1.37      8.64       0.0
  J89                  JUNCTION             -1.00      6.26       0.0
  J9                   JUNCTION             -2.20      4.44       0.0
  J96                  JUNCTION             -1.97      5.15       0.0
  outfall              OUTFALL              -6.30     10.00       0.0
  J155                 STORAGE              -4.00      7.18       0.0
  
  
  ************
  Link Summary
  ************
  Name             From Node        To Node          Type            Length    %Slope Roughness
  ---------------------------------------------------------------------------------------------
  C103_1           J71              J3               CONDUIT          380.3    0.6233    0.0100
  C103_3           J3               J5               CONDUIT          261.0    0.2000    0.0100
  C103_4           J5               J57              CONDUIT          252.8    0.2000    0.0100
  C108             J70              J71              CONDUIT          121.0    0.1612    0.0100
  C110             J43              J44              CONDUIT          240.0    0.1667    0.0100
  C125_1           J57              J1               CONDUIT          257.8    0.9757    0.0100
  C125_2           J1               J52              CONDUIT          254.2    0.0100    0.0100
  C147             J7               J4               CONDUIT          393.0    0.2000    0.0100
  C147_2           J4               J57              CONDUIT          194.0    0.2000    0.0100
  C147_5           J63              J7               CONDUIT          273.4    0.8371    0.0100
  C15              J26              J17              CONDUIT          386.0    0.2000    0.0100
  C152             J23              J63              CONDUIT          346.2    0.0323    0.0100
  C152_1           J147             J23              CONDUIT           56.8    0.0317    0.0100
  C158             J17              J151             CONDUIT           40.0    0.2000    0.0100
  C159             J151             J10              CONDUIT           65.0    0.0100    0.0100
  C160             J18              J151             CONDUIT           65.0    0.0100    0.0100
  C167             J104             J32              CONDUIT           77.0    0.0100    0.0100
  C168             J155             J104             CONDUIT           15.0    6.6815    0.0100
  C174             J156             J71              CONDUIT          226.0    0.0863    0.0100
  C18_1            J52              J13              CONDUIT           24.9    0.0104    0.0100
  C18_2            J13              J50              CONDUIT          142.9    0.0104    0.0100
  C2               J50              J46              CONDUIT           71.3    0.0100    0.0100
  C26              J11              J14              CONDUIT          445.6    0.2917    0.0100
  C27              J2               J89              CONDUIT          314.9    0.2000    0.0100
  C38              J96              J32              CONDUIT          130.0    0.1938    0.0100
  C47              J25              J26              CONDUIT          241.0    0.2000    0.0100
  C57              J103             J104             CONDUIT          262.0    0.0100    0.0100
  C62              J32              J30              CONDUIT          305.9    0.0100    0.0100
  C64              J89              J12              CONDUIT          237.9    0.2039    0.0100
  C64_2            J12              J6               CONDUIT          303.5    0.2000    0.0100
  C68_1            J6               J27              CONDUIT           38.4    0.1808    0.0100
  C68_2            J27              J9               CONDUIT           19.2    0.1804    0.0100
  C69              J9               J10              CONDUIT           52.0    0.2000    0.0100
  C70_1            J10              J14              CONDUIT          279.9    0.0046    0.0100
  C70_2            J14              outfall          CONDUIT            5.5    0.0183    0.0100
  C78              J30              J18              CONDUIT          281.0    0.0100    0.0100
  C84              J118             J103             CONDUIT          163.0    0.0100    0.0100
  C85              J44              J118             CONDUIT            8.0    0.0125    0.0100
  C86              J46              J44              CONDUIT          189.0    0.0100    0.0100
  C90_1            J121             J8               CONDUIT          179.1    0.2000    0.0100
  C90_2            J8               J32              CONDUIT          429.7    0.2000    0.0100
  C96              J126             J63              CONDUIT          582.0    0.1436    0.0100
  
  
  *********************
  Cross Section Summary
  *********************
                                        Full     Full     Hyd.     Max.   No. of     Full
  Conduit          Shape               Depth     Area     Rad.    Width  Barrels     Flow
  ---------------------------------------------------------------------------------------
  C103_1           CIRCULAR             1.50     1.77     0.38     1.50        1    10.78
  C103_3           CIRCULAR             1.50     1.77     0.38     1.50        1     6.11
  C103_4           CIRCULAR             1.50     1.77     0.38     1.50        1     6.11
  C108             CIRCULAR             1.25     1.23     0.31     1.25        1     3.37
  C110             CIRCULAR             1.50     1.77     0.38     1.50        1     5.57
  C125_1           CIRCULAR             3.00     7.07     0.75     3.00        1    85.65
  C125_2           RECT_CLOSED          8.00    40.00     1.54     5.00        1    79.21
  C147             CIRCULAR             2.00     3.14     0.50     2.00        1    13.15
  C147_2           CIRCULAR             2.00     3.14     0.50     2.00        1    13.15
  C147_5           CIRCULAR             2.01     3.16     0.50     2.01        1    27.16
  C15              CIRCULAR             1.75     2.41     0.44     1.75        1     9.21
  C152             CIRCULAR             1.26     1.24     0.31     1.26        1     1.53
  C152_1           CIRCULAR             1.26     1.24     0.31     1.26        1     1.51
  C158             CIRCULAR             1.75     2.41     0.44     1.75        1     9.21
  C159             RECT_CLOSED          8.00    40.00     1.54     5.00        1    79.21
  C160             RECT_CLOSED          8.00    40.00     1.54     5.00        1    79.21
  C167             RECT_CLOSED          8.00    40.00     1.54     5.00        1    79.21
  C168             CIRCULAR             2.00     3.14     0.50     2.00        1    76.02
  C174             CIRCULAR             1.00     0.79     0.25     1.00        1     1.36
  C18_1            RECT_CLOSED          8.00    40.00     1.54     5.00        1    80.82
  C18_2            RECT_CLOSED          8.00    40.00     1.54     5.00        1    80.92
  C2               RECT_CLOSED          8.00    40.00     1.54     5.00        1    79.21
  C26              CIRCULAR             1.00     0.79     0.25     1.00        1     2.50
  C27              CIRCULAR             1.25     1.23     0.31     1.25        1     3.76
  C38              CIRCULAR             1.50     1.77     0.38     1.50        1     6.01
  C47              CIRCULAR             1.75     2.41     0.44     1.75        1     9.21
  C57              RECT_CLOSED          8.00    40.00     1.54     5.00        1    79.21
  C62              RECT_CLOSED          8.00    40.00     1.54     5.00        1    79.21
  C64              CIRCULAR             2.00     3.14     0.50     2.00        1    13.28
  C64_2            CIRCULAR             2.00     3.14     0.50     2.00        1    13.15
  C68_1            CIRCULAR             2.00     3.14     0.50     2.00        1    12.51
  C68_2            CIRCULAR             2.00     3.14     0.50     2.00        1    12.49
  C69              CIRCULAR             2.00     3.14     0.50     2.00        1    13.15
  C70_1            RECT_CLOSED         10.00    50.00     1.67     5.00        1    70.50
  C70_2            RECT_CLOSED         10.00    50.00     1.67     5.00        1   141.22
  C78              RECT_CLOSED          8.00    40.00     1.54     5.00        1    79.21
  C84              RECT_CLOSED          8.00    40.00     1.54     5.00        1    79.21
  C85              RECT_CLOSED          8.00    40.00     1.54     5.00        1    88.56
  C86              RECT_CLOSED          8.00    40.00     1.54     5.00        1    79.21
  C90_1            RECT_CLOSED          1.50     1.36     0.28     0.91        1     3.91
  C90_2            RECT_CLOSED          1.50     1.36     0.28     0.91        1     3.91
  C96              CIRCULAR             1.25     1.23     0.31     1.25        1     3.18
  
  
  ****************
  Analysis Options
  ****************
  Flow Units ............... CFS
  Process Models:
    Rainfall/Runoff ........ YES
    RDII ................... NO
    Snowmelt ............... NO
    Groundwater ............ NO
    Flow Routing ........... YES
    Ponding Allowed ........ NO
    Water Quality .......... NO
  Infiltration Method ...... GREEN_AMPT
  Flow Routing Method ...... DYNWAVE
  Surcharge Method ......... EXTRAN
  Starting Date ............ 05/31/2025 12:00:00
  Ending Date .............. 06/02/2025 12:00:00
  Antecedent Dry Days ...... 0.0
  Report Time Step ......... 00:05:00
  Wet Time Step ............ 00:05:00
  Dry Time Step ............ 00:05:00
  Routing Time Step ........ 5.00 sec
  Variable Time Step ....... YES
  Maximum Trials ........... 8
  Number of Threads ........ 2
  Head Tolerance ........... 0.005000 ft
  
  
  *********************
  Control Actions Taken
  *********************

  
  **************************        Volume         Depth
  Runoff Quantity Continuity     acre-feet        inches
  **************************     ---------       -------
  Initial LID Storage ......         0.618         0.047
  Total Precipitation ......        18.188         1.395
  Evaporation Loss .........         0.000         0.000
  Infiltration Loss ........         9.459         0.725
  Surface Runoff ...........         6.963         0.534
  Final Storage ............         2.365         0.181
  Continuity Error (%) .....         0.105
  
  
  **************************        Volume        Volume
  Flow Routing Continuity        acre-feet      10^6 gal
  **************************     ---------     ---------
  Dry Weather Inflow .......         0.000         0.000
  Wet Weather Inflow .......         6.962         2.269
  Groundwater Inflow .......         0.000         0.000
  RDII Inflow ..............         0.000         0.000
  External Inflow ..........         0.000         0.000
  External Outflow .........         3.572         1.164
  Flooding Loss ............         0.000         0.000
  Evaporation Loss .........         0.000         0.000
  Exfiltration Loss ........         0.000         0.000
  Initial Stored Volume ....         1.620         0.528
  Final Stored Volume ......         5.005         1.631
  Continuity Error (%) .....         0.070
  
  
  *************************
  Highest Continuity Errors
  *************************
  Node J30 (5.32%)
  Node J1 (3.62%)
  Node J103 (3.40%)
  Node J32 (3.38%)
  Node J18 (3.25%)
  
  
  ***************************
  Time-Step Critical Elements
  ***************************
  Link C85 (27.51%)
  Link C70_2 (20.26%)
  Link C168 (8.87%)
  
  
  ********************************
  Highest Flow Instability Indexes
  ********************************
  Link C85 (27)
  Link C68_2 (26)
  Link C84 (24)
  Link C86 (20)
  Link C2 (14)
  
  
  *********************************
  Most Frequent Nonconverging Nodes
  *********************************
  Node outfall (7.26%)
  Node J118 (6.36%)
  Node J44 (1.09%)
  Node J12 (0.15%)
  Node J26 (0.13%)
  
  
  *************************
  Routing Time Step Summary
  *************************
  Minimum Time Step           :     0.50 sec
  Average Time Step           :     2.74 sec
  Maximum Time Step           :     5.00 sec
  % of Time in Steady State   :     0.00
  Average Iterations per Step :     3.22
  % of Steps Not Converging   :     7.26
  Time Step Frequencies       :
      5.000 -  3.155 sec      :    49.45 %
      3.155 -  1.991 sec      :     3.33 %
      1.991 -  1.256 sec      :     0.86 %
      1.256 -  0.792 sec      :     2.30 %
      0.792 -  0.500 sec      :    44.05 %
  
  
  ***************************
  Subcatchment Runoff Summary
  ***************************
  
  ------------------------------------------------------------------------------------------------------------------------------
                            Total      Total      Total      Total     Imperv       Perv      Total       Total     Peak  Runoff
                           Precip      Runon       Evap      Infil     Runoff     Runoff     Runoff      Runoff   Runoff   Coeff
  Subcatchment                 in         in         in         in         in         in         in    10^6 gal      CFS
  ------------------------------------------------------------------------------------------------------------------------------
  Sub_1                      1.39       0.00       0.00       0.86       0.74       0.08       0.44        0.03     0.59   0.313
  Sub_10                     1.39       0.00       0.00       0.32       1.04       0.57       0.93        0.06     1.12   0.669
  Sub_11                     1.39       0.00       0.00       0.81       0.76       0.06       0.50        0.01     0.17   0.359
  Sub_12                     1.40       0.00       0.00       0.96       0.65       0.06       0.31        0.04     0.78   0.222
  Sub_13                     1.40       0.00       0.00       0.96       0.67       0.09       0.30        0.04     0.74   0.218
  Sub_14                     1.39       0.00       0.00       0.92       0.68       0.06       0.31        0.13     1.99   0.221
  Sub_15                     1.40       0.00       0.00       0.81       0.77       0.14       0.40        0.04     0.75   0.285
  Sub_16                     1.40       0.00       0.00       0.65       0.65       0.36       0.66        0.05     1.08   0.475
  Sub_17                     1.39       0.00       0.00       1.03       0.54       0.01       0.27        0.04     0.56   0.196
  Sub_18                     1.39       0.00       0.00       0.49       1.06       0.42       0.73        0.03     0.64   0.521
  Sub_19                     1.40       0.00       0.00       0.54       1.04       0.38       0.67        0.04     0.76   0.477
  Sub_2                      1.39       0.00       0.00       0.49       0.86       0.42       0.79        0.10     2.07   0.567
  Sub_20                     1.39       0.00       0.00       0.86       0.75       0.08       0.39        0.12     1.96   0.277
  Sub_21                     1.40       0.00       0.00       0.64       0.96       0.24       0.63        0.04     0.89   0.453
  Sub_22                     1.39       0.00       0.00       0.40       0.94       0.37       0.95        0.02     0.46   0.681
  Sub_23                     1.40       0.00       0.00       0.75       0.85       0.11       0.57        0.05     0.87   0.410
  Sub_24                     1.40       0.00       0.00       0.81       0.78       0.11       0.44        0.07     1.29   0.318
  Sub_25                     1.40       0.00       0.00       0.73       0.57       0.36       0.60        0.05     1.22   0.427
  Sub_26                     1.39       0.00       0.00       0.82       0.81       0.14       0.46        0.08     1.62   0.332
  Sub_27                     1.39       0.00       0.00       0.70       0.90       0.19       0.56        0.03     0.70   0.400
  Sub_28                     1.40       0.00       0.00       0.68       0.95       0.18       0.58        0.17     2.88   0.417
  Sub_29                     1.39       0.00       0.00       0.56       1.02       0.27       0.70        0.08     1.68   0.501
  Sub_3                      1.39       0.00       0.00       0.39       0.97       0.39       0.91        0.07     1.29   0.656
  Sub_30                     1.40       0.00       0.00       0.58       1.00       0.27       0.68        0.05     1.01   0.485
  Sub_31                     1.39       0.00       0.00       0.64       0.95       0.21       0.57        0.05     0.84   0.411
  Sub_32                     1.40       0.00       0.00       0.57       1.03       0.29       0.67        0.14     2.69   0.478
  Sub_33                     1.39       0.00       0.00       0.42       1.12       0.39       0.84        0.07     1.36   0.599
  Sub_34                     1.40       0.00       0.00       0.74       0.85       0.16       0.48        0.03     0.54   0.344
  Sub_35                     1.39       0.00       0.00       0.67       0.92       0.18       0.56        0.04     0.75   0.402
  Sub_36                     1.40       0.00       0.00       0.90       0.64       0.08       0.29        0.01     0.20   0.210
  Sub_37                     1.40       0.00       0.00       0.55       1.04       0.28       0.66        0.03     0.63   0.476
  Sub_38                     1.40       0.00       0.00       0.60       0.97       0.20       0.66        0.08     1.47   0.476
  Sub_39                     1.40       0.00       0.00       0.85       0.73       0.04       0.40        0.13     1.97   0.288
  Sub_4                      1.40       0.00       0.00       0.42       1.11       0.34       0.86        0.05     0.99   0.614
  Sub_5                      1.40       0.00       0.00       0.12       1.30       0.67       1.17        0.06     1.12   0.840
  Sub_6                      1.40       0.00       0.00       0.42       1.13       0.64       0.79        0.04     0.60   0.568
  Sub_7                      1.40       0.00       0.00       0.52       1.02       0.14       0.84        0.02     0.37   0.604
  Sub_8                      1.40       0.00       0.00       1.01       0.53       0.00       0.37        0.00     0.06   0.266
  Sub_9                      1.39       0.00       0.00       0.74       0.56       0.33       0.54        0.07     1.43   0.391
  

  ***********************
  LID Performance Summary
  ***********************

  --------------------------------------------------------------------------------------------------------------------
                                         Total      Evap     Infil   Surface    Drain    Initial     Final  Continuity
                                        Inflow      Loss      Loss   Outflow   Outflow   Storage   Storage       Error
  Subcatchment      LID Control             in        in        in        in        in        in        in           %
  --------------------------------------------------------------------------------------------------------------------
  Sub_1             rain_garden           2.29      0.00      0.00      0.00      0.00      2.40      4.70       -0.11
  Sub_1             rain_barrel         109.05      0.00      0.00     74.80      0.00      0.00     34.25        0.00
  Sub_10            rain_barrel         109.77      0.00      0.00     75.52      0.00      0.00     34.25       -0.00
  Sub_11            rain_garden           2.11      0.00      0.00      0.00      0.00      2.40      4.51       -0.06
  Sub_11            rain_barrel         108.25      0.00      0.00     74.00      0.00      0.00     34.25       -0.00
  Sub_12            rain_garden           2.02      0.00      0.00      0.00      0.00      2.40      4.42       -0.07
  Sub_12            rain_barrel         107.12      0.00      0.00     72.87      0.00      0.00     34.25       -0.00
  Sub_13            rain_garden           2.35      0.00      0.00      0.00      0.00      2.40      4.76       -0.20
  Sub_13            rain_barrel         107.70      0.00      0.00     73.45      0.00      0.00     34.25        0.00
  Sub_14            rain_garden           2.06      0.00      0.00      0.00      0.00      2.40      4.46       -0.02
  Sub_14            rain_barrel         106.05      0.00      0.00     71.80      0.00      0.00     34.25        0.00
  Sub_15            rain_garden           3.07      0.00      0.67      0.00      0.00      2.40      4.80       -0.06
  Sub_15            rain_barrel         105.47      0.00      0.00     71.22      0.00      0.00     34.25       -0.00
  Sub_16            rain_garden           4.85      0.00      1.76      0.00      0.00      2.40      5.49       -0.07
  Sub_16            rain_barrel         109.22      0.00      0.00     74.97      0.00      0.00     34.25       -0.00
  Sub_17            rain_garden           1.50      0.00      0.00      0.00      0.00      2.40      3.90        0.00
  Sub_17            rain_barrel         107.62      0.00      0.00     73.37      0.00      0.00     34.25        0.00
  Sub_18            rain_garden          11.35      0.00      3.41      3.70      0.00      2.40      6.65       -0.06
  Sub_18            rain_barrel         109.87      0.00      0.00     75.62      0.00      0.00     34.25       -0.00
  Sub_19            rain_garden          10.19      0.00      3.35      2.63      0.00      2.40      6.62       -0.13
  Sub_19            rain_barrel         108.40      0.00      0.00     74.15      0.00      0.00     34.25        0.00
  Sub_2             rain_garden           7.18      0.00      3.09      0.00      0.00      2.40      6.49       -0.10
  Sub_2             rain_barrel         109.94      0.00      0.00     75.69      0.00      0.00     34.25       -0.00
  Sub_20            rain_garden           2.35      0.00      0.00      0.00      0.00      2.40      4.75       -0.12
  Sub_20            rain_barrel         107.67      0.00      0.00     73.42      0.00      0.00     34.25        0.00
  Sub_21            rain_garden           5.63      0.00      2.16      0.00      0.00      2.40      5.88       -0.15
  Sub_21            rain_barrel         109.52      0.00      0.00     75.27      0.00      0.00     34.25        0.00
  Sub_22            rain_barrel         110.82      0.00      0.00     76.57      0.00      0.00     34.25        0.00
  Sub_23            rain_garden           2.91      0.00      0.52      0.00      0.00      2.40      4.80       -0.17
  Sub_23            rain_barrel         109.28      0.00      0.00     75.03      0.00      0.00     34.25       -0.00
  Sub_24            rain_garden           2.71      0.00      0.31      0.00      0.00      2.40      4.80       -0.01
  Sub_24            rain_barrel         106.70      0.00      0.00     72.45      0.00      0.00     34.25       -0.00
  Sub_25            rain_barrel         111.74      0.00      0.00     77.49      0.00      0.00     34.25       -0.00
  Sub_26            rain_garden           3.14      0.00      0.75      0.00      0.00      2.40      4.80       -0.19
  Sub_26            rain_barrel         109.76      0.00      0.00     75.51      0.00      0.00     34.25        0.00
  Sub_27            rain_garden           4.31      0.00      1.51      0.00      0.00      2.40      5.21       -0.16
  Sub_27            rain_barrel         109.27      0.00      0.00     75.02      0.00      0.00     34.25        0.00
  Sub_28            rain_garden           4.44      0.00      1.56      0.00      0.00      2.40      5.29       -0.15
  Sub_28            rain_barrel         109.51      0.00      0.00     75.26      0.00      0.00     34.25        0.00
  Sub_29            rain_garden           6.96      0.00      2.94      0.00      0.00      2.40      6.42       -0.13
  Sub_29            rain_barrel         109.34      0.00      0.00     75.09      0.00      0.00     34.25       -0.00
  Sub_3             rain_garden           8.21      0.00      3.46      0.49      0.00      2.40      6.66       -0.08
  Sub_3             rain_barrel         110.46      0.00      0.00     76.21      0.00      0.00     34.25        0.00
  Sub_30            rain_garden           6.55      0.00      2.69      0.00      0.00      2.40      6.27       -0.06
  Sub_30            rain_barrel         109.75      0.00      0.00     75.50      0.00      0.00     34.25       -0.00
  Sub_31            rain_garden           5.13      0.00      1.90      0.00      0.00      2.40      5.64       -0.19
  Sub_31            rain_barrel         107.80      0.00      0.00     73.55      0.00      0.00     34.25        0.00
  Sub_32            rain_garden           7.68      0.00      3.29      0.18      0.00      2.40      6.62       -0.10
  Sub_32            rain_barrel         108.82      0.00      0.00     74.57      0.00      0.00     34.25       -0.00
  Sub_33            rain_garden          13.11      0.00      3.49      5.36      0.00      2.40      6.68       -0.10
  Sub_33            rain_barrel         109.10      0.00      0.00     74.85      0.00      0.00     34.25       -0.00
  Sub_34            rain_garden           3.64      0.00      1.23      0.00      0.00      2.40      4.82       -0.13
  Sub_34            rain_barrel         106.15      0.00      0.00     71.90      0.00      0.00     34.25       -0.00
  Sub_35            rain_garden           4.40      0.00      1.55      0.00      0.00      2.40      5.26       -0.09
  Sub_35            rain_barrel         107.23      0.00      0.00     72.98      0.00      0.00     34.25        0.00
  Sub_36            rain_garden           2.14      0.00      0.00      0.00      0.00      2.40      4.55       -0.24
  Sub_36            rain_barrel         104.79      0.00      0.00     70.54      0.00      0.00     34.25        0.00
  Sub_37            rain_garden           7.81      0.00      3.26      0.38      0.00      2.40      6.58       -0.11
  Sub_37            rain_barrel         108.16      0.00      0.00     73.91      0.00      0.00     34.25        0.00
  Sub_38            rain_garden           5.06      0.00      1.87      0.00      0.00      2.40      5.61       -0.19
  Sub_38            rain_barrel         108.15      0.00      0.00     73.90      0.00      0.00     34.25       -0.00
  Sub_39            rain_garden           1.87      0.00      0.00      0.00      0.00      2.40      4.27        0.00
  Sub_39            rain_barrel         105.48      0.00      0.00     71.23      0.00      0.00     34.25       -0.00
  Sub_4             rain_garden          10.67      0.00      3.40      3.04      0.00      2.40      6.64       -0.06
  Sub_4             rain_barrel         110.05      0.00      0.00     75.80      0.00      0.00     34.25        0.00
  Sub_5             rain_garden          75.59      0.00      4.31     66.74      0.00      2.40      6.95       -0.02
  Sub_5             rain_barrel         109.97      0.00      0.00     75.72      0.00      0.00     34.25       -0.00
  Sub_6             rain_garden          23.25      0.00      3.62     15.31      0.00      2.40      6.73       -0.04
  Sub_6             rain_barrel         108.68      0.00      0.00     74.43      0.00      0.00     34.25       -0.00
  Sub_7             rain_barrel         109.62      0.00      0.00     75.37      0.00      0.00     34.25        0.00
  Sub_9             rain_garden           4.29      0.00      1.50      0.00      0.00      2.40      5.20       -0.18
  Sub_9             rain_barrel         107.73      0.00      0.00     73.48      0.00      0.00     34.25       -0.00
  
  ******************
  Node Depth Summary
  ******************
  
  ---------------------------------------------------------------------------------
                                 Average  Maximum  Maximum  Time of Max    Reported
                                   Depth    Depth      HGL   Occurrence   Max Depth
  Node                 Type         Feet     Feet     Feet  days hr:min        Feet
  ---------------------------------------------------------------------------------
  J1                   JUNCTION     4.64     7.33     1.22     0  18:17        7.33
  J10                  JUNCTION     4.79     7.51     1.21     0  18:15        7.50
  J103                 JUNCTION     4.70     7.41     1.22     0  18:16        7.40
  J104                 JUNCTION     4.72     7.43     1.21     0  18:15        7.43
  J11                  JUNCTION     0.34     4.57     4.57     0  18:00        1.40
  J118                 JUNCTION     4.69     7.39     1.22     0  18:15        7.39
  J12                  JUNCTION     1.14     6.08     4.59     0  17:57        2.77
  J121                 JUNCTION     0.78     3.58     2.57     0  17:57        2.34
  J126                 JUNCTION     0.24     0.91     3.62     0  18:30        0.91
  J13                  JUNCTION     4.66     7.35     1.22     0  18:16        7.35
  J14                  JUNCTION     4.79     7.49     1.19     0  18:14        7.49
  J147                 JUNCTION     0.41     1.37     3.37     0  18:15        1.37
  J151                 JUNCTION     4.78     7.50     1.21     0  18:14        7.50
  J156                 JUNCTION     0.16     0.56     2.56     0  18:15        0.56
  J17                  JUNCTION     1.65     3.53     1.32     0  18:00        3.42
  J18                  JUNCTION     4.78     7.50     1.21     0  18:14        7.49
  J2                   JUNCTION     0.46     7.68     7.31     0  18:00        1.67
  J23                  JUNCTION     0.41     1.36     3.34     0  18:15        1.36
  J25                  JUNCTION     0.75     3.58     2.62     0  18:01        2.21
  J26                  JUNCTION     1.09     7.94     6.50     0  18:00        2.96
  J27                  JUNCTION     1.63     3.53     1.36     0  19:07        3.40
  J3                   JUNCTION     0.57     5.31     4.74     0  19:11        2.03
  J30                  JUNCTION     4.75     7.47     1.21     0  18:15        7.46
  J32                  JUNCTION     4.73     7.44     1.21     0  18:15        7.43
  J4                   JUNCTION     1.00     7.63     6.42     0  18:07        2.70
  J43                  JUNCTION     1.30     5.09     3.39     0  17:53        3.00
  J44                  JUNCTION     4.69     7.39     1.22     0  18:15        7.39
  J46                  JUNCTION     4.68     7.38     1.22     0  18:16        7.36
  J5                   JUNCTION     0.87     4.93     3.84     0  17:57        2.47
  J50                  JUNCTION     4.67     7.37     1.22     0  18:16        7.35
  J52                  JUNCTION     4.66     7.35     1.22     0  18:16        7.35
  J57                  JUNCTION     1.22     2.88     1.29     0  18:14        2.86
  J6                   JUNCTION     1.58     3.58     1.48     0  19:07        3.34
  J63                  JUNCTION     0.22     0.71     2.58     0  18:30        0.71
  J7                   JUNCTION     0.61     2.32     1.90     0  18:14        2.28
  J70                  JUNCTION     0.06     0.22     2.22     0  18:30        0.22
  J71                  JUNCTION     0.12     0.40     2.20     0  18:16        0.39
  J8                   JUNCTION     1.04     5.29     3.92     0  17:57        2.69
  J89                  JUNCTION     0.78     3.37     2.37     0  19:13        2.29
  J9                   JUNCTION     1.66     3.49     1.29     0  19:07        3.43
  J96                  JUNCTION     1.46     3.18     1.21     0  18:15        3.18
  outfall              OUTFALL      6.78     7.50     1.20     0  18:00        7.50
  J155                 STORAGE      3.46     5.08     1.08     0  19:09        5.07
  
  
  *******************
  Node Inflow Summary
  *******************
  
  -------------------------------------------------------------------------------------------------
                                  Maximum  Maximum                  Lateral       Total        Flow
                                  Lateral    Total  Time of Max      Inflow      Inflow     Balance
                                   Inflow   Inflow   Occurrence      Volume      Volume       Error
  Node                 Type           CFS      CFS  days hr:min    10^6 gal    10^6 gal     Percent
  -------------------------------------------------------------------------------------------------
  J1                   JUNCTION      1.62    15.82     0  18:29      0.0809       0.881       3.760
  J10                  JUNCTION      0.06    45.47     0  19:14     0.00371        1.28       2.866
  J103                 JUNCTION      0.87    25.39     0  18:17      0.0457        1.24       3.521
  J104                 JUNCTION      0.00    37.52     0  19:12           0        1.83       1.925
  J11                  JUNCTION      0.99     0.99     0  18:15      0.0506      0.0506       0.990
  J118                 JUNCTION      1.16    24.37     0  18:17       0.059        1.56       1.937
  J12                  JUNCTION      1.82     3.13     0  18:29         0.1       0.173       1.179
  J121                 JUNCTION      0.76     0.76     0  18:15      0.0389      0.0399       0.250
  J126                 JUNCTION      2.69     2.69     0  18:30       0.138       0.138       0.003
  J13                  JUNCTION      1.96    19.20     0  18:28       0.121        1.01       1.693
  J14                  JUNCTION      0.00    45.77     0  19:14           0        1.14       2.661
  J147                 JUNCTION      1.97     1.97     0  18:30        0.13        0.13      -0.002
  J151                 JUNCTION      0.00    41.67     0  19:14           0        1.15       1.198
  J156                 JUNCTION      0.84     0.84     0  18:15      0.0452      0.0452      -0.003
  J17                  JUNCTION      0.37     2.16     0  18:01      0.0197       0.131       2.651
  J18                  JUNCTION      0.00    40.28     0  19:14           0        1.09       3.356
  J2                   JUNCTION      0.74     0.82     0  17:57      0.0362      0.0364       0.090
  J23                  JUNCTION      1.47     3.43     0  18:15      0.0787       0.209      -0.005
  J25                  JUNCTION      1.12     1.12     0  18:15      0.0641      0.0658       0.042
  J26                  JUNCTION      0.60     2.16     0  18:00      0.0363       0.105       1.941
  J27                  JUNCTION      0.00     5.30     0  18:29           0       0.283      -0.022
  J3                   JUNCTION      0.75     2.39     0  18:16      0.0421       0.133      -0.021
  J30                  JUNCTION      0.56    38.58     0  19:14      0.0366        1.13       5.623
  J32                  JUNCTION      1.08    39.87     0  19:12      0.0506        1.23       3.493
  J4                   JUNCTION      1.29    10.32     0  18:30      0.0714       0.579       0.211
  J43                  JUNCTION      2.88     2.88     0  18:30       0.167       0.168       0.930
  J44                  JUNCTION      0.00    23.21     0  18:28           0         1.5       0.691
  J46                  JUNCTION      0.89    20.31     0  18:17      0.0426        1.01       2.655
  J5                   JUNCTION      0.54     2.92     0  18:16      0.0298       0.165       0.280
  J50                  JUNCTION      0.00    19.38     0  18:17           0       0.995       2.210
  J52                  JUNCTION      1.22    17.40     0  18:17      0.0546       0.909       3.160
  J57                  JUNCTION      1.01    14.19     0  18:30      0.0484       0.796       0.514
  J6                   JUNCTION      2.22     5.30     0  18:29       0.112       0.284       0.982
  J63                  JUNCTION      1.36     7.38     0  18:30      0.0725        0.42      -0.021
  J7                   JUNCTION      1.68     9.03     0  18:30      0.0846       0.504      -0.037
  J70                  JUNCTION      0.20     0.20     0  18:30      0.0114      0.0114      -0.015
  J71                  JUNCTION      0.63     1.64     0  18:15      0.0337      0.0904      -0.107
  J8                   JUNCTION      0.64     1.65     0  17:57      0.0299      0.0722       2.312
  J89                  JUNCTION      0.59     1.85     0  17:56       0.031      0.0709       0.472
  J9                   JUNCTION      1.43     6.73     0  18:29      0.0668       0.351       0.343
  J96                  JUNCTION      0.75     0.75     0  18:30      0.0398      0.0459       1.706
  outfall              OUTFALL       1.29    46.50     0  19:14      0.0694        1.16       0.000
  J155                 STORAGE       1.99    36.52     0  18:15       0.125        1.55      -0.005
  
  
  **********************
  Node Surcharge Summary
  **********************
  
  Surcharging occurs when water rises above the top of the highest conduit.
  ---------------------------------------------------------------------
                                               Max. Height   Min. Depth
                                   Hours       Above Crown    Below Rim
  Node                 Type      Surcharged           Feet         Feet
  ---------------------------------------------------------------------
  J11                  JUNCTION        1.30          3.566        0.000
  J12                  JUNCTION        2.43          4.079        0.000
  J121                 JUNCTION        2.49          2.078        5.918
  J147                 JUNCTION        0.74          0.116        3.473
  J17                  JUNCTION        4.58          1.779        3.204
  J2                   JUNCTION        1.54          6.434        0.000
  J23                  JUNCTION        0.64          0.104        3.369
  J25                  JUNCTION        1.80          1.829        5.839
  J26                  JUNCTION        2.85          6.190        0.000
  J27                  JUNCTION        3.85          1.526        1.377
  J3                   JUNCTION        1.43          3.810        3.811
  J4                   JUNCTION        1.82          5.627        0.000
  J43                  JUNCTION        3.93          3.588        3.562
  J5                   JUNCTION        2.63          3.431        4.035
  J6                   JUNCTION        3.70          1.576        2.258
  J7                   JUNCTION        0.70          0.309        4.216
  J8                   JUNCTION        3.23          3.792        3.345
  J89                  JUNCTION        1.19          1.373        2.888
  J9                   JUNCTION        3.93          1.486        0.954
  J96                  JUNCTION        4.59          1.682        1.971
  
  
  *********************
  Node Flooding Summary
  *********************
  
  Flooding refers to all water that overflows a node, whether it ponds or not.
  --------------------------------------------------------------------------
                                                             Total   Maximum
                                 Maximum   Time of Max       Flood    Ponded
                        Hours       Rate    Occurrence      Volume     Depth
  Node                 Flooded       CFS   days hr:min    10^6 gal      Feet
  --------------------------------------------------------------------------
  J11                     0.01      0.24      0  18:00       0.000     0.000
  J12                     0.01      0.70      0  17:57       0.000     0.000
  J2                      0.01      0.27      0  18:00       0.000     0.000
  J26                     0.01      0.81      0  18:00       0.000     0.000
  J4                      0.01      0.85      0  18:07       0.000     0.000
  
  
  **********************
  Storage Volume Summary
  **********************
  
  ------------------------------------------------------------------------------------------------
                         Average    Avg   Evap  Exfil     Maximum    Max    Time of Max    Maximum
                          Volume   Pcnt   Pcnt   Pcnt      Volume   Pcnt     Occurrence    Outflow
  Storage Unit          1000 ft   Full   Loss   Loss    1000 ft   Full    days hr:min        CFS
  ------------------------------------------------------------------------------------------------
  J155                   131.688   41.8    0.0    0.0     204.080   64.8       0  19:09      17.37
  
  
  ***********************
  Outfall Loading Summary
  ***********************
  
  -----------------------------------------------------------
                         Flow       Avg       Max       Total
                         Freq      Flow      Flow      Volume
  Outfall Node           Pcnt       CFS       CFS    10^6 gal
  -----------------------------------------------------------
  outfall               53.93      7.74     46.50       1.164
  -----------------------------------------------------------
  System                53.93      7.74     46.50       1.164
  
  
  ********************
  Link Flow Summary
  ********************
  
  -----------------------------------------------------------------------------
                                 Maximum  Time of Max   Maximum    Max/    Max/
                                  |Flow|   Occurrence   |Veloc|    Full    Full
  Link                 Type          CFS  days hr:min    ft/sec    Flow   Depth
  -----------------------------------------------------------------------------
  C103_1               CONDUIT      1.64     0  18:16      2.85    0.15    0.63
  C103_3               CONDUIT      2.39     0  18:16      2.73    0.39    1.00
  C103_4               CONDUIT      2.92     0  18:16      2.84    0.48    1.00
  C108                 CONDUIT      0.20     0  18:30      0.90    0.06    0.25
  C110                 CONDUIT      2.88     0  18:30      3.04    0.52    1.00
  C125_1               CONDUIT     14.38     0  18:18      7.02    0.17    0.98
  C125_2               CONDUIT     16.24     0  18:17      0.98    0.21    0.92
  C147                 CONDUIT      9.04     0  18:18      4.06    0.69    1.00
  C147_2               CONDUIT     10.32     0  18:30      5.72    0.78    1.00
  C147_5               CONDUIT      7.38     0  18:30      4.72    0.27    0.68
  C15                  CONDUIT      1.82     0  18:01      2.56    0.20    1.00
  C152                 CONDUIT      3.44     0  18:15      3.30    2.25    0.78
  C152_1               CONDUIT      1.97     0  18:30      1.59    1.30    1.00
  C158                 CONDUIT      2.16     0  18:01      3.00    0.23    1.00
  C159                 CONDUIT     41.74     0  19:14      1.14    0.53    0.94
  C160                 CONDUIT     40.60     0  19:14      1.11    0.51    0.94
  C167                 CONDUIT     38.17     0  19:12      1.05    0.48    0.93
  C168                 CONDUIT     34.68     0  18:15     13.97    0.46    0.77
  C174                 CONDUIT      0.84     0  18:15      2.26    0.61    0.48
  C18_1                CONDUIT     17.42     0  18:17      0.93    0.22    0.92
  C18_2                CONDUIT     19.38     0  18:17      1.03    0.24    0.92
  C2                   CONDUIT     19.45     0  18:17      0.94    0.25    0.92
  C26                  CONDUIT      1.01     0  18:09      2.72    0.40    1.00
  C27                  CONDUIT      0.74     0  18:45      1.74    0.20    1.00
  C38                  CONDUIT      0.75     0  18:30      2.16    0.13    1.00
  C47                  CONDUIT      1.62     0  18:00      2.08    0.18    1.00
  C57                  CONDUIT     25.40     0  18:18      0.78    0.32    0.93
  C62                  CONDUIT     38.28     0  19:14      1.06    0.48    0.93
  C64                  CONDUIT      1.32     0  18:30      1.59    0.10    1.00
  C64_2                CONDUIT      3.13     0  18:29      2.41    0.24    1.00
  C68_1                CONDUIT      5.30     0  18:29      3.24    0.42    1.00
  C68_2                CONDUIT      5.30     0  18:29      3.22    0.42    1.00
  C69                  CONDUIT      6.72     0  18:29      3.82    0.51    1.00
  C70_1                CONDUIT     45.29     0  19:14      1.24    0.64    0.75
  C70_2                CONDUIT     45.86     0  19:14      1.26    0.32    0.75
  C78                  CONDUIT     40.28     0  19:14      1.10    0.51    0.94
  C84                  CONDUIT     24.58     0  18:17      0.95    0.31    0.93
  C85                  CONDUIT     23.22     0  18:17      0.94    0.26    0.92
  C86                  CONDUIT     20.47     0  18:18      0.88    0.26    0.92
  C90_1                CONDUIT      1.07     0  17:57      1.60    0.27    1.00
  C90_2                CONDUIT      1.40     0  18:15      2.20    0.36    1.00
  C96                  CONDUIT      2.68     0  18:30      3.17    0.84    0.65
  
  
  ***************************
  Flow Classification Summary
  ***************************
  
  -------------------------------------------------------------------------------------
                      Adjusted    ---------- Fraction of Time in Flow Class ---------- 
                       /Actual         Up    Down  Sub   Sup   Up    Down  Norm  Inlet 
  Conduit               Length    Dry  Dry   Dry   Crit  Crit  Crit  Crit  Ltd   Ctrl  
  -------------------------------------------------------------------------------------
  C103_1                  1.00   0.31  0.00  0.00  0.69  0.00  0.00  0.00  0.65  0.00
  C103_3                  1.00   0.31  0.00  0.00  0.69  0.00  0.00  0.00  0.59  0.00
  C103_4                  1.00   0.31  0.00  0.00  0.69  0.00  0.00  0.00  0.03  0.00
  C108                    1.00   0.31  0.00  0.00  0.69  0.00  0.00  0.00  0.48  0.00
  C110                    1.00   0.31  0.00  0.00  0.63  0.00  0.00  0.05  0.00  0.00
  C125_1                  1.00   0.31  0.00  0.00  0.64  0.00  0.00  0.05  0.01  0.00
  C125_2                  1.00   0.31  0.00  0.00  0.69  0.00  0.00  0.00  0.00  0.00
  C147                    1.00   0.31  0.00  0.00  0.69  0.00  0.00  0.00  0.58  0.00
  C147_2                  1.00   0.31  0.00  0.00  0.66  0.03  0.00  0.00  0.00  0.00
  C147_5                  1.00   0.31  0.00  0.00  0.65  0.03  0.00  0.00  0.69  0.00
  C15                     1.00   0.31  0.00  0.00  0.69  0.00  0.00  0.00  0.05  0.00
  C152                    1.00   0.31  0.00  0.00  0.69  0.00  0.00  0.00  0.00  0.00
  C152_1                  1.00   0.31  0.00  0.00  0.69  0.00  0.00  0.00  0.39  0.00
  C158                    1.00   0.31  0.00  0.00  0.63  0.00  0.00  0.05  0.00  0.00
  C159                    1.00   0.31  0.00  0.00  0.68  0.00  0.00  0.00  0.00  0.00
  C160                    1.00   0.32  0.01  0.00  0.68  0.00  0.00  0.00  0.00  0.00
  C167                    1.00   0.31  0.01  0.00  0.67  0.00  0.00  0.00  0.00  0.00
  C168                    1.00   0.37  0.00  0.00  0.59  0.02  0.02  0.00  0.58  0.00
  C174                    1.00   0.31  0.00  0.00  0.69  0.00  0.00  0.00  0.07  0.00
  C18_1                   1.00   0.31  0.00  0.00  0.68  0.00  0.00  0.00  0.01  0.00
  C18_2                   1.00   0.31  0.00  0.00  0.69  0.00  0.00  0.00  0.00  0.00
  C2                      1.00   0.31  0.01  0.00  0.68  0.00  0.00  0.00  0.01  0.00
  C26                     1.00   0.31  0.06  0.00  0.57  0.00  0.00  0.06  0.56  0.00
  C27                     1.00   0.31  0.04  0.00  0.64  0.00  0.00  0.00  0.60  0.00
  C38                     1.00   0.31  0.00  0.00  0.63  0.00  0.00  0.05  0.00  0.00
  C47                     1.00   0.31  0.00  0.00  0.69  0.00  0.00  0.00  0.06  0.00
  C57                     1.00   0.31  0.00  0.00  0.69  0.00  0.00  0.00  0.00  0.00
  C62                     1.00   0.31  0.00  0.00  0.69  0.00  0.00  0.00  0.00  0.00
  C64                     1.00   0.31  0.00  0.00  0.69  0.00  0.00  0.00  0.06  0.00
  C64_2                   1.00   0.31  0.00  0.00  0.69  0.00  0.00  0.00  0.06  0.00
  C68_1                   1.00   0.31  0.00  0.00  0.69  0.00  0.00  0.00  0.00  0.00
  C68_2                   1.00   0.31  0.00  0.00  0.69  0.00  0.00  0.00  0.02  0.00
  C69                     1.00   0.31  0.00  0.00  0.63  0.00  0.00  0.05  0.00  0.00
  C70_1                   1.00   0.32  0.01  0.00  0.68  0.00  0.00  0.00  0.00  0.00
  C70_2                   1.00   0.00  0.00  0.00  1.00  0.00  0.00  0.00  0.00  0.00
  C78                     1.00   0.31  0.00  0.00  0.69  0.00  0.00  0.00  0.00  0.00
  C84                     1.00   0.31  0.00  0.00  0.69  0.00  0.00  0.00  0.00  0.00
  C85                     1.00   0.31  0.01  0.00  0.68  0.00  0.00  0.00  0.00  0.00
  C86                     1.00   0.31  0.00  0.00  0.69  0.00  0.00  0.00  0.01  0.00
  C90_1                   1.00   0.31  0.00  0.00  0.69  0.00  0.00  0.00  0.03  0.00
  C90_2                   1.00   0.31  0.00  0.00  0.63  0.00  0.00  0.05  0.00  0.00
  C96                     1.00   0.31  0.00  0.00  0.69  0.00  0.00  0.00  0.14  0.00
  
  
  *************************
  Conduit Surcharge Summary
  *************************
  
  ----------------------------------------------------------------------------
                                                           Hours        Hours 
                         --------- Hours Full --------   Above Full   Capacity
  Conduit                Both Ends  Upstream  Dnstream   Normal Flow   Limited
  ----------------------------------------------------------------------------
  C103_1                      0.01      0.01      1.43      0.01         0.01
  C103_3                      1.43      1.43      2.63      0.01         0.01
  C103_4                      2.63      2.63      3.69      0.01         0.01
  C110                        3.93      3.93      4.96      0.01         0.01
  C125_1                      0.01      0.01     30.29      0.01         0.01
  C147                        0.71      0.71      1.82      0.01         0.01
  C147_2                      1.82      1.82      2.65      0.01         0.01
  C147_5                      0.01      0.01      0.70      0.01         0.01
  C15                         2.85      2.85      4.58      0.01         0.01
  C152                        0.01      0.64      0.01      2.36         0.01
  C152_1                      0.64      0.74      0.64      1.55         0.64
  C158                        4.58      4.58      4.82      0.01         0.01
  C168                        0.01      0.01      1.17      0.01         0.01
  C26                         1.30      1.30      4.16      0.01         0.01
  C27                         1.54      1.54      2.99      0.01         0.01
  C38                         4.59      4.59     13.25      0.01         0.01
  C47                         1.79      1.79      2.85      0.01         0.01
  C64                         1.19      1.19      2.43      0.01         0.01
  C64_2                       2.43      2.43      3.70      0.01         0.01
  C68_1                       3.70      3.70      3.85      0.01         0.01
  C68_2                       3.85      3.85      3.93      0.01         0.01
  C69                         3.93      3.93      4.15      0.01         0.01
  C90_1                       2.49      2.49      3.23      0.01         0.01
  C90_2                       3.23      3.23     13.89      0.01         0.01
  

  Analysis begun on:  Tue Jun 17 02:27:03 2025
  Analysis ended on:  Tue Jun 17 02:27:06 2025
  Total elapsed time: 00:00:03