
  EPA STORM WATER MANAGEMENT MODEL - VERSION 5.2 (Build 5.2.4)
  PYSWMM TOOLKIT API - VERSION v1.0 (2024-04-17)
  ------------------------------------------------------------

  WARNING 04: minimum elevation drop used for Conduit C70_2
  WARNING 04: minimum elevation drop used for Conduit C85
  
  *************
  Element Count
  *************
  Number of rain gages ...... 1
  Number of subcatchments ... 39
  Number of nodes ........... 43
  Number of links ........... 42
  Number of pollutants ...... 0
  Number of land uses ....... 0
  
  
  ****************
  Raingage Summary
  ****************
                                                      Data       Recording
  Name                 Data Source                    Type       Interval 
  ------------------------------------------------------------------------
  rain_gage            rain_gage_timeseries           INTENSITY   15 min.
  
  
  ********************
  Subcatchment Summary
  ********************
  Name                       Area     Width   %Imperv    %Slope Rain Gage            Outlet              
  -----------------------------------------------------------------------------------------------------------
  Sub_1                      2.62    272.79     55.00    3.9580 rain_gage            J89                 
  Sub_10                     2.19    296.41     77.00    2.4860 rain_gage            J12                 
  Sub_11                     0.67    130.53     57.00    5.0240 rain_gage            J6                  
  Sub_12                     5.31    283.97     49.00    3.4940 rain_gage            J12                 
  Sub_13                     4.38    341.66     50.00    2.9930 rain_gage            J2                  
  Sub_14                    14.91    412.40     52.00    3.9710 rain_gage            J155                
  Sub_15                     3.68    325.75     59.00    4.8800 rain_gage            J96                 
  Sub_16                     2.81    372.64     48.00    3.5770 rain_gage            J32                 
  Sub_17                     4.94    458.98     41.00    4.7410 rain_gage            J30                 
  Sub_18                     1.52    250.00     79.00    2.3090 rain_gage            J8                  
  Sub_19                     2.15    372.00     78.00    3.4760 rain_gage            J121                
  Sub_2                      4.81    406.94     64.00    3.8880 rain_gage            J6                  
  Sub_20                    11.54    261.37     57.00    3.9380 rain_gage            J13                 
  Sub_21                     2.48    159.75     71.00    3.2870 rain_gage            J46                 
  Sub_22                     0.94    200.00     69.00    3.2890 rain_gage            J118                
  Sub_23                     2.95    250.00     63.00    3.6520 rain_gage            J103                
  Sub_24                     5.93    412.94     59.00    3.2030 rain_gage            J4                  
  Sub_25                     3.38    300.00     42.00    3.1260 rain_gage            J52                 
  Sub_26                     6.44    408.85     60.00    3.6440 rain_gage            J1                  
  Sub_27                     2.29    250.00     67.00    3.4680 rain_gage            J118                
  Sub_28                    10.61    229.01     71.00    3.1810 rain_gage            J43                 
  Sub_29                     4.46    300.00     76.00    3.1960 rain_gage            J7                  
  Sub_3                      2.79    466.00     72.00    3.7700 rain_gage            outfall             
  Sub_30                     2.64    390.64     74.00    3.0810 rain_gage            J57                 
  Sub_31                     2.90    292.33     72.00    2.7780 rain_gage            J156                
  Sub_32                     7.63    310.58     77.00    2.8180 rain_gage            J126                
  Sub_33                     3.19    461.41     83.00    3.0790 rain_gage            J63                 
  Sub_34                     2.29    250.00     65.00    2.6240 rain_gage            J5                  
  Sub_35                     2.76    217.64     70.00    2.8170 rain_gage            J3                  
  Sub_36                     1.43    235.88     50.00    2.2300 rain_gage            J70                 
  Sub_37                     1.87    251.70     78.00    3.2300 rain_gage            J71                 
  Sub_38                     4.37    354.85     73.00    3.2410 rain_gage            J23                 
  Sub_39                    11.94    244.72     56.00    2.9530 rain_gage            J147                
  Sub_4                      2.18    358.74     82.00    3.9740 rain_gage            J11                 
  Sub_5                      2.02    268.69     96.00    3.0480 rain_gage            J25                 
  Sub_6                      1.69    314.60     85.00    3.7140 rain_gage            J26                 
  Sub_7                      0.86    147.58     75.00    3.3650 rain_gage            J17                 
  Sub_8                      0.37     73.53     39.00    3.1440 rain_gage            J10                 
  Sub_9                      4.52    345.46     42.00    3.8900 rain_gage            J9                  
  
  
  ************
  Node Summary
  ************
                                           Invert      Max.    Ponded    External
  Name                 Type                 Elev.     Depth      Area    Inflow  
  -------------------------------------------------------------------------------
  J1                   JUNCTION             -6.11     11.75       0.0
  J10                  JUNCTION             -6.30     10.18       0.0
  J103                 JUNCTION             -6.19     10.56       0.0
  J104                 JUNCTION             -6.22     10.06       0.0
  J11                  JUNCTION              0.00      4.57       0.0
  J118                 JUNCTION             -6.18     12.12       0.0
  J12                  JUNCTION             -1.49      6.08       0.0
  J121                 JUNCTION             -1.01      9.50       0.0
  J126                 JUNCTION              2.71      5.20       0.0
  J13                  JUNCTION             -6.14     12.38       0.0
  J14                  JUNCTION             -6.30     10.18       0.0
  J147                 JUNCTION              2.00      4.84       0.0
  J151                 JUNCTION             -6.29     10.14       0.0
  J156                 JUNCTION              2.00      6.65       0.0
  J17                  JUNCTION             -2.21      6.73       0.0
  J18                  JUNCTION             -6.29     10.21       0.0
  J2                   JUNCTION             -0.37      7.68       0.0
  J23                  JUNCTION              1.98      4.73       0.0
  J25                  JUNCTION             -0.96      9.42       0.0
  J26                  JUNCTION             -1.44      7.94       0.0
  J27                  JUNCTION             -2.16      4.90       0.0
  J3                   JUNCTION             -0.57      9.12       0.0
  J30                  JUNCTION             -6.26      9.78       0.0
  J32                  JUNCTION             -6.23     10.58       0.0
  J4                   JUNCTION             -1.20      7.63       0.0
  J43                  JUNCTION             -1.70      8.65       0.0
  J44                  JUNCTION             -6.18     12.57       0.0
  J46                  JUNCTION             -6.16     11.43       0.0
  J5                   JUNCTION             -1.09      8.97       0.0
  J50                  JUNCTION             -6.15     11.76       0.0
  J52                  JUNCTION             -6.13     12.49       0.0
  J57                  JUNCTION             -1.59      8.82       0.0
  J6                   JUNCTION             -2.09      5.83       0.0
  J63                  JUNCTION              1.87      4.03       0.0
  J7                   JUNCTION             -0.42      6.53       0.0
  J70                  JUNCTION              2.00      7.06       0.0
  J71                  JUNCTION              1.80      7.50       0.0
  J8                   JUNCTION             -1.37      8.64       0.0
  J89                  JUNCTION             -1.00      6.26       0.0
  J9                   JUNCTION             -2.20      4.44       0.0
  J96                  JUNCTION             -1.97      5.15       0.0
  outfall              OUTFALL              -6.30     10.00       0.0
  J155                 STORAGE              -4.00      7.18       0.0
  
  
  ************
  Link Summary
  ************
  Name             From Node        To Node          Type            Length    %Slope Roughness
  ---------------------------------------------------------------------------------------------
  C103_1           J71              J3               CONDUIT          380.3    0.6233    0.0100
  C103_3           J3               J5               CONDUIT          261.0    0.2000    0.0100
  C103_4           J5               J57              CONDUIT          252.8    0.2000    0.0100
  C108             J70              J71              CONDUIT          121.0    0.1612    0.0100
  C110             J43              J44              CONDUIT          240.0    0.1667    0.0100
  C125_1           J57              J1               CONDUIT          257.8    0.9757    0.0100
  C125_2           J1               J52              CONDUIT          254.2    0.0100    0.0100
  C147             J7               J4               CONDUIT          393.0    0.2000    0.0100
  C147_2           J4               J57              CONDUIT          194.0    0.2000    0.0100
  C147_5           J63              J7               CONDUIT          273.4    0.8371    0.0100
  C15              J26              J17              CONDUIT          386.0    0.2000    0.0100
  C152             J23              J63              CONDUIT          346.2    0.0323    0.0100
  C152_1           J147             J23              CONDUIT           56.8    0.0317    0.0100
  C158             J17              J151             CONDUIT           40.0    0.2000    0.0100
  C159             J151             J10              CONDUIT           65.0    0.0100    0.0100
  C160             J18              J151             CONDUIT           65.0    0.0100    0.0100
  C167             J104             J32              CONDUIT           77.0    0.0100    0.0100
  C168             J155             J104             CONDUIT           15.0    6.6815    0.0100
  C174             J156             J71              CONDUIT          226.0    0.0863    0.0100
  C18_1            J52              J13              CONDUIT           24.9    0.0104    0.0100
  C18_2            J13              J50              CONDUIT          142.9    0.0104    0.0100
  C2               J50              J46              CONDUIT           71.3    0.0100    0.0100
  C26              J11              J14              CONDUIT          445.6    0.2917    0.0100
  C27              J2               J89              CONDUIT          314.9    0.2000    0.0100
  C38              J96              J32              CONDUIT          130.0    0.1938    0.0100
  C47              J25              J26              CONDUIT          241.0    0.2000    0.0100
  C57              J103             J104             CONDUIT          262.0    0.0100    0.0100
  C62              J32              J30              CONDUIT          305.9    0.0100    0.0100
  C64              J89              J12              CONDUIT          237.9    0.2039    0.0100
  C64_2            J12              J6               CONDUIT          303.5    0.2000    0.0100
  C68_1            J6               J27              CONDUIT           38.4    0.1808    0.0100
  C68_2            J27              J9               CONDUIT           19.2    0.1804    0.0100
  C69              J9               J10              CONDUIT           52.0    0.2000    0.0100
  C70_1            J10              J14              CONDUIT          279.9    0.0046    0.0100
  C70_2            J14              outfall          CONDUIT            5.5    0.0183    0.0100
  C78              J30              J18              CONDUIT          281.0    0.0100    0.0100
  C84              J118             J103             CONDUIT          163.0    0.0100    0.0100
  C85              J44              J118             CONDUIT            8.0    0.0125    0.0100
  C86              J46              J44              CONDUIT          189.0    0.0100    0.0100
  C90_1            J121             J8               CONDUIT          179.1    0.2000    0.0100
  C90_2            J8               J32              CONDUIT          429.7    0.2000    0.0100
  C96              J126             J63              CONDUIT          582.0    0.1436    0.0100
  
  
  *********************
  Cross Section Summary
  *********************
                                        Full     Full     Hyd.     Max.   No. of     Full
  Conduit          Shape               Depth     Area     Rad.    Width  Barrels     Flow
  ---------------------------------------------------------------------------------------
  C103_1           CIRCULAR             1.50     1.77     0.38     1.50        1    10.78
  C103_3           CIRCULAR             1.50     1.77     0.38     1.50        1     6.11
  C103_4           CIRCULAR             1.50     1.77     0.38     1.50        1     6.11
  C108             CIRCULAR             1.25     1.23     0.31     1.25        1     3.37
  C110             CIRCULAR             1.50     1.77     0.38     1.50        1     5.57
  C125_1           CIRCULAR             3.00     7.07     0.75     3.00        1    85.65
  C125_2           RECT_CLOSED          8.00    40.00     1.54     5.00        1    79.21
  C147             CIRCULAR             2.00     3.14     0.50     2.00        1    13.15
  C147_2           CIRCULAR             2.00     3.14     0.50     2.00        1    13.15
  C147_5           CIRCULAR             2.01     3.16     0.50     2.01        1    27.16
  C15              CIRCULAR             1.75     2.41     0.44     1.75        1     9.21
  C152             CIRCULAR             1.26     1.24     0.31     1.26        1     1.53
  C152_1           CIRCULAR             1.26     1.24     0.31     1.26        1     1.51
  C158             CIRCULAR             1.75     2.41     0.44     1.75        1     9.21
  C159             RECT_CLOSED          8.00    40.00     1.54     5.00        1    79.21
  C160             RECT_CLOSED          8.00    40.00     1.54     5.00        1    79.21
  C167             RECT_CLOSED          8.00    40.00     1.54     5.00        1    79.21
  C168             CIRCULAR             2.00     3.14     0.50     2.00        1    76.02
  C174             CIRCULAR             1.00     0.79     0.25     1.00        1     1.36
  C18_1            RECT_CLOSED          8.00    40.00     1.54     5.00        1    80.82
  C18_2            RECT_CLOSED          8.00    40.00     1.54     5.00        1    80.92
  C2               RECT_CLOSED          8.00    40.00     1.54     5.00        1    79.21
  C26              CIRCULAR             1.00     0.79     0.25     1.00        1     2.50
  C27              CIRCULAR             1.25     1.23     0.31     1.25        1     3.76
  C38              CIRCULAR             1.50     1.77     0.38     1.50        1     6.01
  C47              CIRCULAR             1.75     2.41     0.44     1.75        1     9.21
  C57              RECT_CLOSED          8.00    40.00     1.54     5.00        1    79.21
  C62              RECT_CLOSED          8.00    40.00     1.54     5.00        1    79.21
  C64              CIRCULAR             2.00     3.14     0.50     2.00        1    13.28
  C64_2            CIRCULAR             2.00     3.14     0.50     2.00        1    13.15
  C68_1            CIRCULAR             2.00     3.14     0.50     2.00        1    12.51
  C68_2            CIRCULAR             2.00     3.14     0.50     2.00        1    12.49
  C69              CIRCULAR             2.00     3.14     0.50     2.00        1    13.15
  C70_1            RECT_CLOSED         10.00    50.00     1.67     5.00        1    70.50
  C70_2            RECT_CLOSED         10.00    50.00     1.67     5.00        1   141.22
  C78              RECT_CLOSED          8.00    40.00     1.54     5.00        1    79.21
  C84              RECT_CLOSED          8.00    40.00     1.54     5.00        1    79.21
  C85              RECT_CLOSED          8.00    40.00     1.54     5.00        1    88.56
  C86              RECT_CLOSED          8.00    40.00     1.54     5.00        1    79.21
  C90_1            RECT_CLOSED          1.50     1.36     0.28     0.91        1     3.91
  C90_2            RECT_CLOSED          1.50     1.36     0.28     0.91        1     3.91
  C96              CIRCULAR             1.25     1.23     0.31     1.25        1     3.18
  
  
  ****************
  Analysis Options
  ****************
  Flow Units ............... CFS
  Process Models:
    Rainfall/Runoff ........ YES
    RDII ................... NO
    Snowmelt ............... NO
    Groundwater ............ NO
    Flow Routing ........... YES
    Ponding Allowed ........ NO
    Water Quality .......... NO
  Infiltration Method ...... GREEN_AMPT
  Flow Routing Method ...... DYNWAVE
  Surcharge Method ......... EXTRAN
  Starting Date ............ 05/31/2025 12:00:00
  Ending Date .............. 06/02/2025 12:00:00
  Antecedent Dry Days ...... 0.0
  Report Time Step ......... 00:05:00
  Wet Time Step ............ 00:05:00
  Dry Time Step ............ 00:05:00
  Routing Time Step ........ 5.00 sec
  Variable Time Step ....... YES
  Maximum Trials ........... 8
  Number of Threads ........ 2
  Head Tolerance ........... 0.005000 ft
  
  
  *********************
  Control Actions Taken
  *********************

  
  **************************        Volume         Depth
  Runoff Quantity Continuity     acre-feet        inches
  **************************     ---------       -------
  Total Precipitation ......         8.540         0.655
  Evaporation Loss .........         0.000         0.000
  Infiltration Loss ........         4.690         0.360
  Surface Runoff ...........         3.548         0.272
  Final Storage ............         0.305         0.023
  Continuity Error (%) .....        -0.040
  
  
  **************************        Volume        Volume
  Flow Routing Continuity        acre-feet      10^6 gal
  **************************     ---------     ---------
  Dry Weather Inflow .......         0.000         0.000
  Wet Weather Inflow .......         3.548         1.156
  Groundwater Inflow .......         0.000         0.000
  RDII Inflow ..............         0.000         0.000
  External Inflow ..........        10.728         3.496
  External Outflow .........        14.028         4.571
  Flooding Loss ............         2.840         0.926
  Evaporation Loss .........         0.000         0.000
  Exfiltration Loss ........         0.000         0.000
  Initial Stored Volume ....         1.620         0.528
  Final Stored Volume ......         5.067         1.651
  Continuity Error (%) .....       -37.998
  
  
  *************************
  Highest Continuity Errors
  *************************
  Node J26 (2.81%)
  Node J8 (2.35%)
  Node J1 (2.18%)
  Node J17 (1.67%)
  Node J52 (1.35%)
  
  
  ***************************
  Time-Step Critical Elements
  ***************************
  Link C70_2 (70.42%)
  Link C168 (22.83%)
  Link C85 (3.44%)
  Link C68_2 (2.36%)
  
  
  ********************************
  Highest Flow Instability Indexes
  ********************************
  Link C85 (11)
  Link C38 (10)
  Link C68_2 (10)
  Link C158 (9)
  Link C68_1 (7)
  
  
  *********************************
  Most Frequent Nonconverging Nodes
  *********************************
  Node outfall (4.11%)
  Node J26 (0.93%)
  Node J2 (0.80%)
  Node J5 (0.60%)
  Node J12 (0.53%)
  
  
  *************************
  Routing Time Step Summary
  *************************
  Minimum Time Step           :     0.50 sec
  Average Time Step           :     0.96 sec
  Maximum Time Step           :     5.00 sec
  % of Time in Steady State   :     0.00
  Average Iterations per Step :     2.50
  % of Steps Not Converging   :     4.11
  Time Step Frequencies       :
      5.000 -  3.155 sec      :     5.01 %
      3.155 -  1.991 sec      :     7.77 %
      1.991 -  1.256 sec      :     9.42 %
      1.256 -  0.792 sec      :     3.97 %
      0.792 -  0.500 sec      :    73.84 %
  
  
  ***************************
  Subcatchment Runoff Summary
  ***************************
  
  ------------------------------------------------------------------------------------------------------------------------------
                            Total      Total      Total      Total     Imperv       Perv      Total       Total     Peak  Runoff
                           Precip      Runon       Evap      Infil     Runoff     Runoff     Runoff      Runoff   Runoff   Coeff
  Subcatchment                 in         in         in         in         in         in         in    10^6 gal      CFS
  ------------------------------------------------------------------------------------------------------------------------------
  Sub_1                      0.65       0.00       0.00       0.40       0.34       0.00       0.24        0.02     0.28   0.363
  Sub_10                     0.65       0.00       0.00       0.25       0.48       0.04       0.38        0.02     0.40   0.573
  Sub_11                     0.66       0.00       0.00       0.39       0.35       0.00       0.25        0.00     0.07   0.377
  Sub_12                     0.66       0.00       0.00       0.42       0.30       0.00       0.21        0.03     0.50   0.324
  Sub_13                     0.66       0.00       0.00       0.42       0.31       0.00       0.22        0.03     0.42   0.330
  Sub_14                     0.66       0.00       0.00       0.41       0.32       0.00       0.22        0.09     1.48   0.343
  Sub_15                     0.66       0.00       0.00       0.38       0.36       0.00       0.26        0.03     0.42   0.390
  Sub_16                     0.65       0.00       0.00       0.43       0.30       0.00       0.21        0.02     0.26   0.317
  Sub_17                     0.65       0.00       0.00       0.46       0.25       0.00       0.18        0.02     0.39   0.271
  Sub_18                     0.66       0.00       0.00       0.28       0.49       0.00       0.34        0.01     0.23   0.522
  Sub_19                     0.66       0.00       0.00       0.29       0.48       0.00       0.34        0.02     0.32   0.515
  Sub_2                      0.65       0.00       0.00       0.35       0.40       0.00       0.28        0.04     0.59   0.423
  Sub_20                     0.66       0.00       0.00       0.39       0.35       0.00       0.25        0.08     1.25   0.376
  Sub_21                     0.65       0.00       0.00       0.32       0.44       0.00       0.31        0.02     0.34   0.469
  Sub_22                     0.66       0.00       0.00       0.32       0.43       0.01       0.31        0.01     0.13   0.478
  Sub_23                     0.65       0.00       0.00       0.36       0.39       0.00       0.27        0.02     0.35   0.416
  Sub_24                     0.66       0.00       0.00       0.38       0.36       0.00       0.26        0.04     0.67   0.390
  Sub_25                     0.65       0.00       0.00       0.46       0.26       0.00       0.18        0.02     0.27   0.277
  Sub_26                     0.66       0.00       0.00       0.37       0.37       0.00       0.26        0.05     0.74   0.396
  Sub_27                     0.66       0.00       0.00       0.34       0.41       0.00       0.29        0.02     0.29   0.442
  Sub_28                     0.65       0.00       0.00       0.32       0.44       0.00       0.31        0.09     1.41   0.469
  Sub_29                     0.66       0.00       0.00       0.30       0.47       0.00       0.33        0.04     0.65   0.502
  Sub_3                      0.66       0.00       0.00       0.29       0.44       0.02       0.34        0.03     0.44   0.512
  Sub_30                     0.66       0.00       0.00       0.31       0.46       0.00       0.32        0.02     0.37   0.489
  Sub_31                     0.66       0.00       0.00       0.32       0.44       0.00       0.31        0.02     0.40   0.475
  Sub_32                     0.66       0.00       0.00       0.29       0.48       0.00       0.33        0.07     1.12   0.508
  Sub_33                     0.65       0.00       0.00       0.27       0.51       0.00       0.36        0.03     0.51   0.548
  Sub_34                     0.65       0.00       0.00       0.35       0.40       0.00       0.28        0.02     0.28   0.429
  Sub_35                     0.65       0.00       0.00       0.33       0.43       0.00       0.30        0.02     0.37   0.462
  Sub_36                     0.65       0.00       0.00       0.42       0.31       0.00       0.22        0.01     0.14   0.330
  Sub_37                     0.66       0.00       0.00       0.29       0.48       0.00       0.34        0.02     0.28   0.515
  Sub_38                     0.66       0.00       0.00       0.31       0.45       0.00       0.32        0.04     0.61   0.482
  Sub_39                     0.65       0.00       0.00       0.39       0.35       0.00       0.24        0.08     1.26   0.370
  Sub_4                      0.65       0.00       0.00       0.27       0.51       0.00       0.35        0.02     0.34   0.542
  Sub_5                      0.66       0.00       0.00       0.09       0.59       0.11       0.52        0.03     0.50   0.801
  Sub_6                      0.66       0.00       0.00       0.26       0.53       0.00       0.37        0.02     0.27   0.561
  Sub_7                      0.65       0.00       0.00       0.30       0.46       0.00       0.32        0.01     0.12   0.495
  Sub_8                      0.66       0.00       0.00       0.47       0.24       0.00       0.17        0.00     0.03   0.258
  Sub_9                      0.66       0.00       0.00       0.46       0.26       0.00       0.18        0.02     0.36   0.277
  
  
  ******************
  Node Depth Summary
  ******************
  
  ---------------------------------------------------------------------------------
                                 Average  Maximum  Maximum  Time of Max    Reported
                                   Depth    Depth      HGL   Occurrence   Max Depth
  Node                 Type         Feet     Feet     Feet  days hr:min        Feet
  ---------------------------------------------------------------------------------
  J1                   JUNCTION     6.62    11.75     5.64     0  00:03        8.40
  J10                  JUNCTION     6.82     9.79     3.49     0  00:00        7.61
  J103                 JUNCTION     6.71    10.56     4.37     0  00:04        7.63
  J104                 JUNCTION     6.74    10.06     3.84     0  00:01        7.58
  J11                  JUNCTION     0.64     4.57     4.57     0  00:01        1.22
  J118                 JUNCTION     6.69    12.12     5.94     0  00:04        7.89
  J12                  JUNCTION     2.00     6.08     4.59     0  00:01        2.81
  J121                 JUNCTION     1.53     9.50     8.49     0  00:04        2.58
  J126                 JUNCTION     0.06     0.52     3.23     0  18:15        0.52
  J13                  JUNCTION     6.65    12.38     6.25     0  00:03        8.30
  J14                  JUNCTION     6.82    10.18     3.88     0  00:00        7.50
  J147                 JUNCTION     0.11     0.90     2.90     0  18:15        0.90
  J151                 JUNCTION     6.81    10.14     3.85     0  00:00        7.63
  J156                 JUNCTION     0.05     0.38     2.38     0  18:15        0.38
  J17                  JUNCTION     2.73     6.73     4.52     0  00:00        3.54
  J18                  JUNCTION     6.81    10.21     3.92     0  00:00        7.68
  J2                   JUNCTION     0.93     7.68     7.31     0  00:03        1.76
  J23                  JUNCTION     0.12     0.91     2.89     0  18:15        0.91
  J25                  JUNCTION     1.48     9.42     8.46     0  00:02        2.32
  J26                  JUNCTION     1.96     7.94     6.50     0  00:02        7.41
  J27                  JUNCTION     2.68     4.90     2.74     0  00:00        3.50
  J3                   JUNCTION     1.11     9.12     8.56     0  00:06        1.98
  J30                  JUNCTION     6.78     9.78     3.52     0  00:01        7.66
  J32                  JUNCTION     6.74    10.58     4.36     0  00:01        7.80
  J4                   JUNCTION     1.73     7.63     6.42     0  00:04        2.92
  J43                  JUNCTION     2.22     8.65     6.95     0  00:03        3.42
  J44                  JUNCTION     6.69    12.57     6.40     0  00:04        7.90
  J46                  JUNCTION     6.67    11.43     5.27     0  00:04        7.95
  J5                   JUNCTION     1.61     8.97     7.88     0  00:04        2.51
  J50                  JUNCTION     6.66    11.76     5.61     0  00:02        8.07
  J52                  JUNCTION     6.64    12.49     6.36     0  00:03        8.32
  J57                  JUNCTION     2.11     8.82     7.22     0  00:04        3.69
  J6                   JUNCTION     2.61     5.83     3.74     0  00:00        3.43
  J63                  JUNCTION     0.06     0.49     2.36     0  18:15        0.49
  J7                   JUNCTION     0.99     6.53     6.11     0  00:06        2.13
  J70                  JUNCTION     0.02     0.17     2.17     0  18:15        0.17
  J71                  JUNCTION     0.04     0.28     2.08     0  18:15        0.28
  J8                   JUNCTION     1.89     8.64     7.27     0  00:04        2.94
  J89                  JUNCTION     1.52     6.26     5.26     0  00:02        2.40
  J9                   JUNCTION     2.72     4.44     2.24     0  00:00        3.53
  J96                  JUNCTION     2.49     5.15     3.18     0  00:01        3.55
  outfall              OUTFALL      6.82     9.70     3.40     0  00:00        7.50
  J155                 STORAGE      4.24     5.23     1.23     1  17:57        5.21
  
  
  *******************
  Node Inflow Summary
  *******************
  
  -------------------------------------------------------------------------------------------------
                                  Maximum  Maximum                  Lateral       Total        Flow
                                  Lateral    Total  Time of Max      Inflow      Inflow     Balance
                                   Inflow   Inflow   Occurrence      Volume      Volume       Error
  Node                 Type           CFS      CFS  days hr:min    10^6 gal    10^6 gal     Percent
  -------------------------------------------------------------------------------------------------
  J1                   JUNCTION      0.74   329.71     0  00:03      0.0454        1.59       2.225
  J10                  JUNCTION      0.03   595.55     0  00:00     0.00169        8.64       0.033
  J103                 JUNCTION      0.35   359.38     0  00:02      0.0218        3.42       1.211
  J104                 JUNCTION      0.00   441.69     0  00:02           0        8.03       0.432
  J11                  JUNCTION      0.34     3.59     0  00:01       0.021      0.0282      -0.817
  J118                 JUNCTION      0.42   507.10     1  17:57      0.0261        3.22       1.147
  J12                  JUNCTION      0.88    19.22     0  00:01      0.0528       0.253       0.780
  J121                 JUNCTION      0.32     3.71     0  00:04      0.0197      0.0349       0.167
  J126                 JUNCTION      1.12     1.12     0  18:15       0.069       0.069      -0.006
  J13                  JUNCTION      1.25   410.68     0  00:03      0.0772        2.44       0.611
  J14                  JUNCTION      0.00  4529.85     0  00:00           0        9.77       0.569
  J147                 JUNCTION      1.26     1.26     0  18:15      0.0785      0.0785       0.000
  J151                 JUNCTION      0.00   631.51     0  00:00           0        8.27       0.154
  J156                 JUNCTION      0.40     0.40     0  18:15      0.0246      0.0246      -0.005
  J17                  JUNCTION      0.12    48.52     0  00:00     0.00757       0.191       1.699
  J18                  JUNCTION      0.00   577.17     0  00:00           0        8.02       0.421
  J2                   JUNCTION      0.42     5.73     0  00:03      0.0257      0.0486       1.940
  J23                  JUNCTION      0.61     1.87     0  18:15      0.0374       0.116       0.003
  J25                  JUNCTION      0.50    10.17     0  00:02      0.0287       0.066      -0.206
  J26                  JUNCTION      0.27    15.18     0  00:02      0.0169       0.147       2.892
  J27                  JUNCTION      0.00    30.11     0  00:00           0       0.341      -0.312
  J3                   JUNCTION      0.37     7.54     0  00:04      0.0227       0.141      -0.038
  J30                  JUNCTION      0.39   494.79     0  00:01      0.0238        7.82       0.749
  J32                  JUNCTION      0.26   439.57     0  00:01      0.0158        7.66       0.544
  J4                   JUNCTION      0.67    35.56     0  00:04      0.0411       0.654       0.383
  J43                  JUNCTION      1.41     7.13     0  00:02      0.0884       0.103       0.837
  J44                  JUNCTION      0.00   380.93     0  00:02           0           3      -1.024
  J46                  JUNCTION      0.34   382.86     0  00:02      0.0207        2.93       0.869
  J5                   JUNCTION      0.28    15.66     0  00:04      0.0175       0.254       0.368
  J50                  JUNCTION      0.00   425.14     0  00:03           0        2.76       0.730
  J52                  JUNCTION      0.27   501.39     0  00:03      0.0167        2.05       1.368
  J57                  JUNCTION      0.37    62.80     0  00:04      0.0229        1.12       0.364
  J6                   JUNCTION      0.66    32.16     0  00:00      0.0407       0.325       0.492
  J63                  JUNCTION      0.51     4.14     0  00:06      0.0311       0.217       0.066
  J7                   JUNCTION      0.65    12.49     0  00:05      0.0398       0.402      -0.014
  J70                  JUNCTION      0.14     0.14     0  18:15     0.00841     0.00841      -0.018
  J71                  JUNCTION      0.28     2.16     0  00:06      0.0172      0.0512       0.152
  J8                   JUNCTION      0.23     4.80     0  00:04      0.0141       0.084       2.404
  J89                  JUNCTION      0.28    15.18     0  00:02      0.0169       0.135       0.053
  J9                   JUNCTION      0.36    37.72     0  00:00      0.0223       0.376      -0.328
  J96                  JUNCTION      0.42     9.58     0  00:01      0.0255      0.0379       1.583
  outfall              OUTFALL       0.44  4529.85     0  00:00      0.0255        8.07       0.000
  J155                 STORAGE       1.48    48.53     0  00:05       0.091        3.47      -0.006
  
  
  **********************
  Node Surcharge Summary
  **********************
  
  Surcharging occurs when water rises above the top of the highest conduit.
  ---------------------------------------------------------------------
                                               Max. Height   Min. Depth
                                   Hours       Above Crown    Below Rim
  Node                 Type      Surcharged           Feet         Feet
  ---------------------------------------------------------------------
  J1                   JUNCTION        0.03          3.746        0.000
  J103                 JUNCTION        0.01          2.563        0.000
  J104                 JUNCTION        0.01          2.062        0.000
  J11                  JUNCTION        9.87          3.566        0.000
  J118                 JUNCTION        0.02          4.118        0.000
  J12                  JUNCTION       19.10          4.079        0.000
  J121                 JUNCTION       19.38          7.996        0.000
  J13                  JUNCTION        0.02          4.385        0.000
  J14                  JUNCTION        0.03          0.180        0.000
  J151                 JUNCTION        0.03          2.140        0.000
  J17                  JUNCTION       35.22          4.983        0.000
  J18                  JUNCTION        0.01          2.207        0.000
  J2                   JUNCTION       12.21          6.434        0.000
  J25                  JUNCTION       14.03          7.668        0.000
  J26                  JUNCTION       22.26          6.190        0.000
  J27                  JUNCTION       29.69          2.903        0.000
  J3                   JUNCTION       10.70          7.621        0.000
  J30                  JUNCTION        0.01          1.778        0.000
  J32                  JUNCTION        0.01          2.584        0.000
  J4                   JUNCTION       13.84          5.627        0.000
  J43                  JUNCTION       30.30          7.150        0.000
  J44                  JUNCTION        0.01          4.573        0.000
  J46                  JUNCTION        0.02          3.432        0.000
  J5                   JUNCTION       20.68          7.466        0.000
  J50                  JUNCTION        0.02          3.757        0.000
  J52                  JUNCTION        0.02          4.494        0.000
  J57                  JUNCTION        0.12          5.816        0.000
  J6                   JUNCTION       28.52          3.834        0.000
  J7                   JUNCTION        0.04          4.525        0.000
  J8                   JUNCTION       25.02          7.137        0.000
  J89                  JUNCTION        9.43          4.261        0.000
  J9                   JUNCTION       30.22          2.440        0.000
  J96                  JUNCTION       35.41          3.653        0.000
  
  
  *********************
  Node Flooding Summary
  *********************
  
  Flooding refers to all water that overflows a node, whether it ponds or not.
  --------------------------------------------------------------------------
                                                             Total   Maximum
                                 Maximum   Time of Max       Flood    Ponded
                        Hours       Rate    Occurrence      Volume     Depth
  Node                 Flooded       CFS   days hr:min    10^6 gal      Feet
  --------------------------------------------------------------------------
  J1                      0.01    311.37      0  00:03       0.020     0.000
  J103                    0.01    143.33      0  00:04       0.009     0.000
  J104                    0.01     94.10      0  00:01       0.001     0.000
  J11                     0.01      2.85      0  00:01       0.000     0.000
  J118                    0.01     33.34      0  00:04       0.000     0.000
  J12                     0.01     13.56      0  00:01       0.001     0.000
  J121                    0.01      3.11      0  00:04       0.000     0.000
  J13                     0.01    258.62      0  00:03       0.005     0.000
  J14                     0.03   4194.52      0  00:00       0.840     0.000
  J151                    0.01    270.50      0  00:00       0.005     0.000
  J17                     0.01     46.14      0  00:00       0.001     0.000
  J18                     0.01    250.36      0  00:00       0.008     0.000
  J2                      0.01      5.59      0  00:03       0.000     0.000
  J25                     0.01      9.50      0  00:02       0.000     0.000
  J26                     0.01     10.89      0  00:02       0.000     0.000
  J27                     0.01     16.71      0  00:00       0.000     0.000
  J3                      0.01      5.87      0  00:06       0.000     0.000
  J30                     0.01    265.52      0  00:01       0.012     0.000
  J32                     0.01     96.92      0  00:01       0.001     0.000
  J4                      0.01     32.64      0  00:04       0.002     0.000
  J43                     0.01      4.44      0  00:03       0.000     0.000
  J44                     0.01     35.82      0  00:04       0.000     0.000
  J46                     0.01    130.13      0  00:04       0.002     0.000
  J5                      0.01     14.27      0  00:04       0.000     0.000
  J50                     0.01    122.55      0  00:03       0.001     0.000
  J52                     0.01    332.10      0  00:03       0.005     0.000
  J57                     0.01     49.56      0  00:04       0.002     0.000
  J6                      0.01     21.96      0  00:06       0.001     0.000
  J7                      0.01      8.83      0  00:06       0.000     0.000
  J8                      0.01      2.57      0  00:04       0.000     0.000
  J89                     0.01     10.98      0  00:02       0.000     0.000
  J9                      0.03     28.30      0  00:00       0.008     0.000
  J96                     0.01      9.43      0  00:01       0.000     0.000
  
  
  **********************
  Storage Volume Summary
  **********************
  
  ------------------------------------------------------------------------------------------------
                         Average    Avg   Evap  Exfil     Maximum    Max    Time of Max    Maximum
                          Volume   Pcnt   Pcnt   Pcnt      Volume   Pcnt     Occurrence    Outflow
  Storage Unit          1000 ft³   Full   Loss   Loss    1000 ft³   Full    days hr:min        CFS
  ------------------------------------------------------------------------------------------------
  J155                   166.121   52.7    0.0    0.0     211.453   67.1       1  17:57      32.16
  
  
  ***********************
  Outfall Loading Summary
  ***********************
  
  -----------------------------------------------------------
                         Flow       Avg       Max       Total
                         Freq      Flow      Flow      Volume
  Outfall Node           Pcnt       CFS       CFS    10^6 gal
  -----------------------------------------------------------
  outfall               77.14     14.05   4529.85       8.068
  -----------------------------------------------------------
  System                77.14     14.05   4529.85       8.068
  
  
  ********************
  Link Flow Summary
  ********************
  
  -----------------------------------------------------------------------------
                                 Maximum  Time of Max   Maximum    Max/    Max/
                                  |Flow|   Occurrence   |Veloc|    Full    Full
  Link                 Type          CFS  days hr:min    ft/sec    Flow   Depth
  -----------------------------------------------------------------------------
  C103_1               CONDUIT      2.16     0  00:06      2.39    0.20    0.59
  C103_3               CONDUIT      7.54     0  00:04      7.39    1.24    1.00
  C103_4               CONDUIT     15.66     0  00:04      9.38    2.56    1.00
  C108                 CONDUIT      0.14     0  18:15      0.91    0.04    0.18
  C110                 CONDUIT      7.13     0  00:02      5.26    1.28    1.00
  C125_1               CONDUIT     62.80     0  00:04      9.36    0.73    1.00
  C125_2               CONDUIT    329.71     0  00:03     10.58    4.16    1.00
  C147                 CONDUIT     12.49     0  00:05      6.70    0.95    1.00
  C147_2               CONDUIT     35.56     0  00:04     12.20    2.70    1.00
  C147_5               CONDUIT      4.14     0  00:06      2.55    0.15    0.62
  C15                  CONDUIT     15.18     0  00:02      6.35    1.65    1.00
  C152                 CONDUIT      1.87     0  18:15      2.65    1.22    0.55
  C152_1               CONDUIT      1.26     0  18:15      1.32    0.83    0.72
  C158                 CONDUIT     48.52     0  00:00     25.94    5.27    1.00
  C159                 CONDUIT    631.51     0  00:00     20.31    7.97    1.00
  C160                 CONDUIT    577.17     0  00:00     23.05    7.29    1.00
  C167                 CONDUIT    441.69     0  00:02     14.69    5.58    0.99
  C168                 CONDUIT     48.53     0  00:05     18.22    0.64    0.81
  C174                 CONDUIT      0.40     0  18:15      1.76    0.29    0.33
  C18_1                CONDUIT    501.39     0  00:03     23.84    6.20    1.00
  C18_2                CONDUIT    410.68     0  00:03     18.36    5.07    1.00
  C2                   CONDUIT    425.14     0  00:03     17.67    5.37    1.00
  C26                  CONDUIT      3.59     0  00:01     15.23    1.44    1.00
  C27                  CONDUIT      5.73     0  00:03      5.61    1.53    1.00
  C38                  CONDUIT      9.58     0  00:01      5.49    1.59    1.00
  C47                  CONDUIT     10.17     0  00:02      5.98    1.10    1.00
  C57                  CONDUIT    359.38     0  00:02     12.65    4.54    0.99
  C62                  CONDUIT    439.57     0  00:01     13.13    5.55    0.98
  C64                  CONDUIT     15.18     0  00:02      6.50    1.14    1.00
  C64_2                CONDUIT     19.22     0  00:01      7.08    1.46    1.00
  C68_1                CONDUIT     32.16     0  00:00     12.46    2.57    1.00
  C68_2                CONDUIT     30.11     0  00:00     10.39    2.41    1.00
  C69                  CONDUIT     37.72     0  00:00     12.01    2.87    1.00
  C70_1                CONDUIT    595.55     0  00:00     13.52    8.45    0.97
  C70_2                CONDUIT   4529.85     0  00:00    >50.00   32.08    0.99
  C78                  CONDUIT    494.79     0  00:01     14.21    6.25    1.00
  C84                  CONDUIT    399.24     0  00:02     12.14    5.04    1.00
  C85                  CONDUIT    507.10     1  17:57     18.43    5.73    1.00
  C86                  CONDUIT    382.86     0  00:02     11.42    4.83    1.00
  C90_1                CONDUIT      3.71     0  00:04      2.84    0.95    1.00
  C90_2                CONDUIT      4.80     0  00:04      4.03    1.23    1.00
  C96                  CONDUIT      1.12     0  18:15      2.42    0.35    0.40
  
  
  ***************************
  Flow Classification Summary
  ***************************
  
  -------------------------------------------------------------------------------------
                      Adjusted    ---------- Fraction of Time in Flow Class ---------- 
                       /Actual         Up    Down  Sub   Sup   Up    Down  Norm  Inlet 
  Conduit               Length    Dry  Dry   Dry   Crit  Crit  Crit  Crit  Ltd   Ctrl  
  -------------------------------------------------------------------------------------
  C103_1                  1.00   0.00  0.18  0.00  0.81  0.00  0.00  0.00  0.99  0.00
  C103_3                  1.00   0.00  0.00  0.00  1.00  0.00  0.00  0.00  0.24  0.00
  C103_4                  1.00   0.00  0.00  0.00  1.00  0.00  0.00  0.00  0.01  0.00
  C108                    1.00   0.18  0.17  0.00  0.65  0.00  0.00  0.00  0.57  0.00
  C110                    1.00   0.00  0.00  0.00  1.00  0.00  0.00  0.00  0.00  0.00
  C125_1                  1.00   0.00  0.00  0.00  1.00  0.00  0.00  0.00  0.00  0.00
  C125_2                  1.00   0.00  0.00  0.00  1.00  0.00  0.00  0.00  0.00  0.00
  C147                    1.00   0.00  0.00  0.00  1.00  0.00  0.00  0.00  0.31  0.00
  C147_2                  1.00   0.00  0.00  0.00  1.00  0.00  0.00  0.00  0.00  0.00
  C147_5                  1.00   0.00  0.23  0.00  0.77  0.00  0.00  0.00  1.00  0.00
  C15                     1.00   0.00  0.00  0.00  1.00  0.00  0.00  0.00  0.00  0.00
  C152                    1.00   0.00  0.00  0.00  1.00  0.00  0.00  0.00  0.22  0.00
  C152_1                  1.00   0.00  0.31  0.00  0.69  0.00  0.00  0.00  0.39  0.00
  C158                    1.00   0.00  0.00  0.00  1.00  0.00  0.00  0.00  0.00  0.00
  C159                    1.00   0.00  0.00  0.00  1.00  0.00  0.00  0.00  0.00  0.00
  C160                    1.00   0.00  0.00  0.00  1.00  0.00  0.00  0.00  0.00  0.00
  C167                    1.00   0.00  0.00  0.00  1.00  0.00  0.00  0.00  0.00  0.00
  C168                    1.00   0.00  0.05  0.00  0.68  0.10  0.17  0.00  0.47  0.00
  C174                    1.00   0.18  0.13  0.00  0.69  0.00  0.00  0.00  0.18  0.00
  C18_1                   1.00   0.00  0.00  0.00  1.00  0.00  0.00  0.00  0.00  0.00
  C18_2                   1.00   0.00  0.00  0.00  1.00  0.00  0.00  0.00  0.00  0.00
  C2                      1.00   0.00  0.00  0.00  1.00  0.00  0.00  0.00  0.00  0.00
  C26                     1.00   0.00  0.00  0.00  1.00  0.00  0.00  0.00  0.45  0.00
  C27                     1.00   0.00  0.00  0.00  1.00  0.00  0.00  0.00  0.32  0.00
  C38                     1.00   0.00  0.00  0.00  1.00  0.00  0.00  0.00  0.00  0.00
  C47                     1.00   0.00  0.00  0.00  1.00  0.00  0.00  0.00  0.00  0.00
  C57                     1.00   0.00  0.00  0.00  1.00  0.00  0.00  0.00  0.00  0.00
  C62                     1.00   0.00  0.00  0.00  1.00  0.00  0.00  0.00  0.00  0.00
  C64                     1.00   0.00  0.00  0.00  1.00  0.00  0.00  0.00  0.00  0.00
  C64_2                   1.00   0.00  0.00  0.00  1.00  0.00  0.00  0.00  0.00  0.00
  C68_1                   1.00   0.00  0.00  0.00  1.00  0.00  0.00  0.00  0.00  0.00
  C68_2                   1.00   0.00  0.00  0.00  1.00  0.00  0.00  0.00  0.00  0.00
  C69                     1.00   0.00  0.00  0.00  1.00  0.00  0.00  0.00  0.00  0.00
  C70_1                   1.00   0.00  0.00  0.00  1.00  0.00  0.00  0.00  0.00  0.00
  C70_2                   1.00   0.00  0.00  0.00  1.00  0.00  0.00  0.00  0.00  0.00
  C78                     1.00   0.00  0.00  0.00  1.00  0.00  0.00  0.00  0.00  0.00
  C84                     1.00   0.00  0.00  0.00  1.00  0.00  0.00  0.00  0.00  0.00
  C85                     1.00   0.00  0.00  0.00  1.00  0.00  0.00  0.00  0.00  0.00
  C86                     1.00   0.00  0.00  0.00  1.00  0.00  0.00  0.00  0.00  0.00
  C90_1                   1.00   0.00  0.00  0.00  1.00  0.00  0.00  0.00  0.00  0.00
  C90_2                   1.00   0.00  0.00  0.00  1.00  0.00  0.00  0.00  0.00  0.00
  C96                     1.00   0.23  0.08  0.00  0.69  0.00  0.00  0.00  0.13  0.00
  
  
  *************************
  Conduit Surcharge Summary
  *************************
  
  ----------------------------------------------------------------------------
                                                           Hours        Hours 
                         --------- Hours Full --------   Above Full   Capacity
  Conduit                Both Ends  Upstream  Dnstream   Normal Flow   Limited
  ----------------------------------------------------------------------------
  C103_1                      0.01      0.01      9.70      0.01         0.01
  C103_3                     10.70     10.70     20.68      0.02         0.04
  C103_4                     20.68     20.68     28.49      0.03         0.05
  C110                       30.30     30.30     38.36      0.01         0.01
  C125_1                      0.12      0.12     47.85      0.01         0.01
  C125_2                      0.01      0.03      0.02      0.02         0.01
  C147                        0.05      0.05     13.84      0.01         0.01
  C147_2                     13.84     13.84     20.90      0.01         0.04
  C147_5                      0.01      0.01      0.04      0.01         0.01
  C15                        22.26     22.26     35.22      0.02         0.04
  C152                        0.01      0.01      0.01      1.20         0.01
  C158                       35.22     35.22     36.95      0.03         0.06
  C159                        0.03      0.03      0.04      0.11         0.01
  C160                        0.01      0.01      0.03      0.10         0.01
  C167                        0.01      0.01      0.01      0.06         0.01
  C168                        0.01      0.01      9.83      0.01         0.01
  C18_1                       0.02      0.02      0.02      0.03         0.02
  C18_2                       0.01      0.02      0.02      0.03         0.01
  C2                          0.01      0.02      0.02      0.03         0.01
  C26                         9.86      9.86     32.05      0.01         0.01
  C27                        12.21     12.21     23.29      0.01         0.07
  C38                        35.41     35.41     41.96      0.01         0.01
  C47                        14.03     14.03     22.26      0.01         0.02
  C57                         0.01      0.01      0.01      0.05         0.01
  C62                         0.01      0.01      0.01      0.07         0.01
  C64                         9.43      9.43     19.10      0.01         0.02
  C64_2                      19.10     19.10     28.50      0.02         0.02
  C68_1                      28.50     28.50     29.64      0.04         0.06
  C68_2                      29.61     29.64     30.19      0.04         0.21
  C69                        30.18     30.18     32.05      0.04         0.06
  C70_1                       0.01      0.01      0.03      0.14         0.01
  C70_2                       0.01      0.03      0.01      0.06         0.01
  C78                         0.01      0.01      0.01      0.09         0.01
  C84                         0.01      0.02      0.01      0.05         0.01
  C85                         0.01      0.01      0.02      0.04         0.01
  C86                         0.01      0.02      0.01      0.04         0.01
  C90_1                      19.37     19.37     25.02      0.01         0.01
  C90_2                      25.02     25.02     42.43      0.02         0.02
  

  Analysis begun on:  Tue Jun 17 02:44:33 2025
  Analysis ended on:  Tue Jun 17 02:44:40 2025
  Total elapsed time: 00:00:07