
  EPA STORM WATER MANAGEMENT MODEL - VERSION 5.2 (Build 5.2.4)
  PYSWMM TOOLKIT API - VERSION v1.0 (2024-04-17)
  ------------------------------------------------------------

  WARNING 04: minimum elevation drop used for Conduit C70_2
  WARNING 04: minimum elevation drop used for Conduit C85
  
  *************
  Element Count
  *************
  Number of rain gages ...... 1
  Number of subcatchments ... 39
  Number of nodes ........... 43
  Number of links ........... 42
  Number of pollutants ...... 0
  Number of land uses ....... 0
  
  
  ****************
  Raingage Summary
  ****************
                                                      Data       Recording
  Name                 Data Source                    Type       Interval 
  ------------------------------------------------------------------------
  rain_gage            rain_gage_timeseries           INTENSITY   15 min.
  
  
  ********************
  Subcatchment Summary
  ********************
  Name                       Area     Width   %Imperv    %Slope Rain Gage            Outlet              
  -----------------------------------------------------------------------------------------------------------
  Sub_1                      2.62    272.79     55.00    3.9580 rain_gage            J89                 
  Sub_10                     2.19    296.41     77.00    2.4860 rain_gage            J12                 
  Sub_11                     0.67    130.53     57.00    5.0240 rain_gage            J6                  
  Sub_12                     5.31    283.97     49.00    3.4940 rain_gage            J12                 
  Sub_13                     4.38    341.66     50.00    2.9930 rain_gage            J2                  
  Sub_14                    14.91    412.40     52.00    3.9710 rain_gage            J155                
  Sub_15                     3.68    325.75     59.00    4.8800 rain_gage            J96                 
  Sub_16                     2.81    372.64     48.00    3.5770 rain_gage            J32                 
  Sub_17                     4.94    458.98     41.00    4.7410 rain_gage            J30                 
  Sub_18                     1.52    250.00     79.00    2.3090 rain_gage            J8                  
  Sub_19                     2.15    372.00     78.00    3.4760 rain_gage            J121                
  Sub_2                      4.81    406.94     64.00    3.8880 rain_gage            J6                  
  Sub_20                    11.54    261.37     57.00    3.9380 rain_gage            J13                 
  Sub_21                     2.48    159.75     71.00    3.2870 rain_gage            J46                 
  Sub_22                     0.94    200.00     69.00    3.2890 rain_gage            J118                
  Sub_23                     2.95    250.00     63.00    3.6520 rain_gage            J103                
  Sub_24                     5.93    412.94     59.00    3.2030 rain_gage            J4                  
  Sub_25                     3.38    300.00     42.00    3.1260 rain_gage            J52                 
  Sub_26                     6.44    408.85     60.00    3.6440 rain_gage            J1                  
  Sub_27                     2.29    250.00     67.00    3.4680 rain_gage            J118                
  Sub_28                    10.61    229.01     71.00    3.1810 rain_gage            J43                 
  Sub_29                     4.46    300.00     76.00    3.1960 rain_gage            J7                  
  Sub_3                      2.79    466.00     72.00    3.7700 rain_gage            outfall             
  Sub_30                     2.64    390.64     74.00    3.0810 rain_gage            J57                 
  Sub_31                     2.90    292.33     72.00    2.7780 rain_gage            J156                
  Sub_32                     7.63    310.58     77.00    2.8180 rain_gage            J126                
  Sub_33                     3.19    461.41     83.00    3.0790 rain_gage            J63                 
  Sub_34                     2.29    250.00     65.00    2.6240 rain_gage            J5                  
  Sub_35                     2.76    217.64     70.00    2.8170 rain_gage            J3                  
  Sub_36                     1.43    235.88     50.00    2.2300 rain_gage            J70                 
  Sub_37                     1.87    251.70     78.00    3.2300 rain_gage            J71                 
  Sub_38                     4.37    354.85     73.00    3.2410 rain_gage            J23                 
  Sub_39                    11.94    244.72     56.00    2.9530 rain_gage            J147                
  Sub_4                      2.18    358.74     82.00    3.9740 rain_gage            J11                 
  Sub_5                      2.02    268.69     96.00    3.0480 rain_gage            J25                 
  Sub_6                      1.69    314.60     85.00    3.7140 rain_gage            J26                 
  Sub_7                      0.86    147.58     75.00    3.3650 rain_gage            J17                 
  Sub_8                      0.37     73.53     39.00    3.1440 rain_gage            J10                 
  Sub_9                      4.52    345.46     42.00    3.8900 rain_gage            J9                  


  *******************
  LID Control Summary
  *******************
                                   No. of        Unit        Unit      % Area    % Imperv      % Perv
  Subcatchment     LID Control      Units        Area       Width     Covered     Treated     Treated
  ---------------------------------------------------------------------------------------------------
  Sub_14           rain_garden        250      100.00        0.00        3.85        0.00       40.02
  Sub_14           rain_barrel        300        2.58        0.00        0.12       26.68        0.00
  
  
  ************
  Node Summary
  ************
                                           Invert      Max.    Ponded    External
  Name                 Type                 Elev.     Depth      Area    Inflow  
  -------------------------------------------------------------------------------
  J1                   JUNCTION             -6.11     11.75       0.0
  J10                  JUNCTION             -6.30     10.18       0.0
  J103                 JUNCTION             -6.19     10.56       0.0
  J104                 JUNCTION             -6.22     10.06       0.0
  J11                  JUNCTION              0.00      4.57       0.0
  J118                 JUNCTION             -6.18     12.12       0.0
  J12                  JUNCTION             -1.49      6.08       0.0
  J121                 JUNCTION             -1.01      9.50       0.0
  J126                 JUNCTION              2.71      5.20       0.0
  J13                  JUNCTION             -6.14     12.38       0.0
  J14                  JUNCTION             -6.30     10.18       0.0
  J147                 JUNCTION              2.00      4.84       0.0
  J151                 JUNCTION             -6.29     10.14       0.0
  J156                 JUNCTION              2.00      6.65       0.0
  J17                  JUNCTION             -2.21      6.73       0.0
  J18                  JUNCTION             -6.29     10.21       0.0
  J2                   JUNCTION             -0.37      7.68       0.0
  J23                  JUNCTION              1.98      4.73       0.0
  J25                  JUNCTION             -0.96      9.42       0.0
  J26                  JUNCTION             -1.44      7.94       0.0
  J27                  JUNCTION             -2.16      4.90       0.0
  J3                   JUNCTION             -0.57      9.12       0.0
  J30                  JUNCTION             -6.26      9.78       0.0
  J32                  JUNCTION             -6.23     10.58       0.0
  J4                   JUNCTION             -1.20      7.63       0.0
  J43                  JUNCTION             -1.70      8.65       0.0
  J44                  JUNCTION             -6.18     12.57       0.0
  J46                  JUNCTION             -6.16     11.43       0.0
  J5                   JUNCTION             -1.09      8.97       0.0
  J50                  JUNCTION             -6.15     11.76       0.0
  J52                  JUNCTION             -6.13     12.49       0.0
  J57                  JUNCTION             -1.59      8.82       0.0
  J6                   JUNCTION             -2.09      5.83       0.0
  J63                  JUNCTION              1.87      4.03       0.0
  J7                   JUNCTION             -0.42      6.53       0.0
  J70                  JUNCTION              2.00      7.06       0.0
  J71                  JUNCTION              1.80      7.50       0.0
  J8                   JUNCTION             -1.37      8.64       0.0
  J89                  JUNCTION             -1.00      6.26       0.0
  J9                   JUNCTION             -2.20      4.44       0.0
  J96                  JUNCTION             -1.97      5.15       0.0
  outfall              OUTFALL              -6.30     10.00       0.0
  J155                 STORAGE              -4.00      7.18       0.0
  
  
  ************
  Link Summary
  ************
  Name             From Node        To Node          Type            Length    %Slope Roughness
  ---------------------------------------------------------------------------------------------
  C103_1           J71              J3               CONDUIT          380.3    0.6233    0.0100
  C103_3           J3               J5               CONDUIT          261.0    0.2000    0.0100
  C103_4           J5               J57              CONDUIT          252.8    0.2000    0.0100
  C108             J70              J71              CONDUIT          121.0    0.1612    0.0100
  C110             J43              J44              CONDUIT          240.0    0.1667    0.0100
  C125_1           J57              J1               CONDUIT          257.8    0.9757    0.0100
  C125_2           J1               J52              CONDUIT          254.2    0.0100    0.0100
  C147             J7               J4               CONDUIT          393.0    0.2000    0.0100
  C147_2           J4               J57              CONDUIT          194.0    0.2000    0.0100
  C147_5           J63              J7               CONDUIT          273.4    0.8371    0.0100
  C15              J26              J17              CONDUIT          386.0    0.2000    0.0100
  C152             J23              J63              CONDUIT          346.2    0.0323    0.0100
  C152_1           J147             J23              CONDUIT           56.8    0.0317    0.0100
  C158             J17              J151             CONDUIT           40.0    0.2000    0.0100
  C159             J151             J10              CONDUIT           65.0    0.0100    0.0100
  C160             J18              J151             CONDUIT           65.0    0.0100    0.0100
  C167             J104             J32              CONDUIT           77.0    0.0100    0.0100
  C168             J155             J104             CONDUIT           15.0    6.6815    0.0100
  C174             J156             J71              CONDUIT          226.0    0.0863    0.0100
  C18_1            J52              J13              CONDUIT           24.9    0.0104    0.0100
  C18_2            J13              J50              CONDUIT          142.9    0.0104    0.0100
  C2               J50              J46              CONDUIT           71.3    0.0100    0.0100
  C26              J11              J14              CONDUIT          445.6    0.2917    0.0100
  C27              J2               J89              CONDUIT          314.9    0.2000    0.0100
  C38              J96              J32              CONDUIT          130.0    0.1938    0.0100
  C47              J25              J26              CONDUIT          241.0    0.2000    0.0100
  C57              J103             J104             CONDUIT          262.0    0.0100    0.0100
  C62              J32              J30              CONDUIT          305.9    0.0100    0.0100
  C64              J89              J12              CONDUIT          237.9    0.2039    0.0100
  C64_2            J12              J6               CONDUIT          303.5    0.2000    0.0100
  C68_1            J6               J27              CONDUIT           38.4    0.1808    0.0100
  C68_2            J27              J9               CONDUIT           19.2    0.1804    0.0100
  C69              J9               J10              CONDUIT           52.0    0.2000    0.0100
  C70_1            J10              J14              CONDUIT          279.9    0.0046    0.0100
  C70_2            J14              outfall          CONDUIT            5.5    0.0183    0.0100
  C78              J30              J18              CONDUIT          281.0    0.0100    0.0100
  C84              J118             J103             CONDUIT          163.0    0.0100    0.0100
  C85              J44              J118             CONDUIT            8.0    0.0125    0.0100
  C86              J46              J44              CONDUIT          189.0    0.0100    0.0100
  C90_1            J121             J8               CONDUIT          179.1    0.2000    0.0100
  C90_2            J8               J32              CONDUIT          429.7    0.2000    0.0100
  C96              J126             J63              CONDUIT          582.0    0.1436    0.0100
  
  
  *********************
  Cross Section Summary
  *********************
                                        Full     Full     Hyd.     Max.   No. of     Full
  Conduit          Shape               Depth     Area     Rad.    Width  Barrels     Flow
  ---------------------------------------------------------------------------------------
  C103_1           CIRCULAR             1.50     1.77     0.38     1.50        1    10.78
  C103_3           CIRCULAR             1.50     1.77     0.38     1.50        1     6.11
  C103_4           CIRCULAR             1.50     1.77     0.38     1.50        1     6.11
  C108             CIRCULAR             1.25     1.23     0.31     1.25        1     3.37
  C110             CIRCULAR             1.50     1.77     0.38     1.50        1     5.57
  C125_1           CIRCULAR             3.00     7.07     0.75     3.00        1    85.65
  C125_2           RECT_CLOSED          8.00    40.00     1.54     5.00        1    79.21
  C147             CIRCULAR             2.00     3.14     0.50     2.00        1    13.15
  C147_2           CIRCULAR             2.00     3.14     0.50     2.00        1    13.15
  C147_5           CIRCULAR             2.01     3.16     0.50     2.01        1    27.16
  C15              CIRCULAR             1.75     2.41     0.44     1.75        1     9.21
  C152             CIRCULAR             1.26     1.24     0.31     1.26        1     1.53
  C152_1           CIRCULAR             1.26     1.24     0.31     1.26        1     1.51
  C158             CIRCULAR             1.75     2.41     0.44     1.75        1     9.21
  C159             RECT_CLOSED          8.00    40.00     1.54     5.00        1    79.21
  C160             RECT_CLOSED          8.00    40.00     1.54     5.00        1    79.21
  C167             RECT_CLOSED          8.00    40.00     1.54     5.00        1    79.21
  C168             CIRCULAR             2.00     3.14     0.50     2.00        1    76.02
  C174             CIRCULAR             1.00     0.79     0.25     1.00        1     1.36
  C18_1            RECT_CLOSED          8.00    40.00     1.54     5.00        1    80.82
  C18_2            RECT_CLOSED          8.00    40.00     1.54     5.00        1    80.92
  C2               RECT_CLOSED          8.00    40.00     1.54     5.00        1    79.21
  C26              CIRCULAR             1.00     0.79     0.25     1.00        1     2.50
  C27              CIRCULAR             1.25     1.23     0.31     1.25        1     3.76
  C38              CIRCULAR             1.50     1.77     0.38     1.50        1     6.01
  C47              CIRCULAR             1.75     2.41     0.44     1.75        1     9.21
  C57              RECT_CLOSED          8.00    40.00     1.54     5.00        1    79.21
  C62              RECT_CLOSED          8.00    40.00     1.54     5.00        1    79.21
  C64              CIRCULAR             2.00     3.14     0.50     2.00        1    13.28
  C64_2            CIRCULAR             2.00     3.14     0.50     2.00        1    13.15
  C68_1            CIRCULAR             2.00     3.14     0.50     2.00        1    12.51
  C68_2            CIRCULAR             2.00     3.14     0.50     2.00        1    12.49
  C69              CIRCULAR             2.00     3.14     0.50     2.00        1    13.15
  C70_1            RECT_CLOSED         10.00    50.00     1.67     5.00        1    70.50
  C70_2            RECT_CLOSED         10.00    50.00     1.67     5.00        1   141.22
  C78              RECT_CLOSED          8.00    40.00     1.54     5.00        1    79.21
  C84              RECT_CLOSED          8.00    40.00     1.54     5.00        1    79.21
  C85              RECT_CLOSED          8.00    40.00     1.54     5.00        1    88.56
  C86              RECT_CLOSED          8.00    40.00     1.54     5.00        1    79.21
  C90_1            RECT_CLOSED          1.50     1.36     0.28     0.91        1     3.91
  C90_2            RECT_CLOSED          1.50     1.36     0.28     0.91        1     3.91
  C96              CIRCULAR             1.25     1.23     0.31     1.25        1     3.18
  
  
  ****************
  Analysis Options
  ****************
  Flow Units ............... CFS
  Process Models:
    Rainfall/Runoff ........ YES
    RDII ................... NO
    Snowmelt ............... NO
    Groundwater ............ NO
    Flow Routing ........... YES
    Ponding Allowed ........ NO
    Water Quality .......... NO
  Infiltration Method ...... GREEN_AMPT
  Flow Routing Method ...... DYNWAVE
  Surcharge Method ......... EXTRAN
  Starting Date ............ 05/31/2025 12:00:00
  Ending Date .............. 06/02/2025 12:00:00
  Antecedent Dry Days ...... 0.0
  Report Time Step ......... 00:05:00
  Wet Time Step ............ 00:05:00
  Dry Time Step ............ 00:05:00
  Routing Time Step ........ 5.00 sec
  Variable Time Step ....... YES
  Maximum Trials ........... 8
  Number of Threads ........ 2
  Head Tolerance ........... 0.005000 ft
  
  
  *********************
  Control Actions Taken
  *********************

  
  **************************        Volume         Depth
  Runoff Quantity Continuity     acre-feet        inches
  **************************     ---------       -------
  Initial LID Storage ......         0.115         0.009
  Total Precipitation ......        10.593         0.812
  Evaporation Loss .........         0.000         0.000
  Infiltration Loss ........         5.798         0.445
  Surface Runoff ...........         4.404         0.338
  Final Storage ............         0.509         0.039
  Continuity Error (%) .....        -0.032
  
  
  **************************        Volume        Volume
  Flow Routing Continuity        acre-feet      10^6 gal
  **************************     ---------     ---------
  Dry Weather Inflow .......         0.000         0.000
  Wet Weather Inflow .......         4.404         1.435
  Groundwater Inflow .......         0.000         0.000
  RDII Inflow ..............         0.000         0.000
  External Inflow ..........         0.000         0.000
  External Outflow .........         1.013         0.330
  Flooding Loss ............         0.000         0.000
  Evaporation Loss .........         0.000         0.000
  Exfiltration Loss ........         0.000         0.000
  Initial Stored Volume ....         1.620         0.528
  Final Stored Volume ......         5.005         1.631
  Continuity Error (%) .....         0.106
  
  
  *************************
  Highest Continuity Errors
  *************************
  Node J30 (11.82%)
  Node J14 (8.45%)
  Node J18 (7.75%)
  Node J32 (7.06%)
  Node J10 (6.96%)
  
  
  ***************************
  Time-Step Critical Elements
  ***************************
  Link C85 (33.89%)
  Link C168 (12.78%)
  Link C70_2 (7.65%)
  Link C68_2 (1.38%)
  
  
  ********************************
  Highest Flow Instability Indexes
  ********************************
  Link C85 (23)
  Link C68_2 (23)
  Link C84 (20)
  Link C86 (17)
  Link C2 (15)
  
  
  *********************************
  Most Frequent Nonconverging Nodes
  *********************************
  Node outfall (5.78%)
  Node J118 (5.51%)
  Node J44 (0.95%)
  Node J8 (0.12%)
  Node J121 (0.07%)
  
  
  *************************
  Routing Time Step Summary
  *************************
  Minimum Time Step           :     0.50 sec
  Average Time Step           :     2.85 sec
  Maximum Time Step           :     5.00 sec
  % of Time in Steady State   :     0.00
  Average Iterations per Step :     3.15
  % of Steps Not Converging   :     5.78
  Time Step Frequencies       :
      5.000 -  3.155 sec      :    47.81 %
      3.155 -  1.991 sec      :     6.61 %
      1.991 -  1.256 sec      :     5.07 %
      1.256 -  0.792 sec      :     2.84 %
      0.792 -  0.500 sec      :    37.66 %
  
  
  ***************************
  Subcatchment Runoff Summary
  ***************************
  
  ------------------------------------------------------------------------------------------------------------------------------
                            Total      Total      Total      Total     Imperv       Perv      Total       Total     Peak  Runoff
                           Precip      Runon       Evap      Infil     Runoff     Runoff     Runoff      Runoff   Runoff   Coeff
  Subcatchment                 in         in         in         in         in         in         in    10^6 gal      CFS
  ------------------------------------------------------------------------------------------------------------------------------
  Sub_1                      0.81       0.00       0.00       0.49       0.43       0.00       0.30        0.02     0.34   0.368
  Sub_10                     0.81       0.00       0.00       0.27       0.60       0.10       0.51        0.03     0.57   0.634
  Sub_11                     0.81       0.00       0.00       0.48       0.44       0.00       0.31        0.01     0.09   0.381
  Sub_12                     0.81       0.00       0.00       0.53       0.38       0.00       0.27        0.04     0.62   0.327
  Sub_13                     0.81       0.00       0.00       0.52       0.39       0.00       0.27        0.03     0.52   0.334
  Sub_14                     0.81       0.00       0.00       0.52       0.39       0.00       0.20        0.08     1.29   0.245
  Sub_15                     0.81       0.00       0.00       0.47       0.46       0.00       0.32        0.03     0.52   0.394
  Sub_16                     0.81       0.00       0.00       0.53       0.37       0.01       0.27        0.02     0.32   0.329
  Sub_17                     0.81       0.00       0.00       0.57       0.32       0.00       0.22        0.03     0.48   0.274
  Sub_18                     0.81       0.00       0.00       0.35       0.61       0.00       0.43        0.02     0.28   0.528
  Sub_19                     0.81       0.00       0.00       0.36       0.61       0.00       0.42        0.02     0.40   0.521
  Sub_2                      0.81       0.00       0.00       0.40       0.50       0.04       0.39        0.05     0.89   0.482
  Sub_20                     0.81       0.00       0.00       0.48       0.44       0.00       0.31        0.10     1.55   0.381
  Sub_21                     0.81       0.00       0.00       0.40       0.55       0.00       0.39        0.03     0.42   0.474
  Sub_22                     0.81       0.00       0.00       0.34       0.54       0.07       0.44        0.01     0.21   0.546
  Sub_23                     0.81       0.00       0.00       0.45       0.49       0.00       0.34        0.03     0.44   0.421
  Sub_24                     0.81       0.00       0.00       0.47       0.46       0.00       0.32        0.05     0.83   0.394
  Sub_25                     0.81       0.00       0.00       0.57       0.33       0.00       0.23        0.02     0.34   0.281
  Sub_26                     0.81       0.00       0.00       0.46       0.47       0.00       0.33        0.06     0.92   0.401
  Sub_27                     0.81       0.00       0.00       0.42       0.52       0.00       0.36        0.02     0.36   0.448
  Sub_28                     0.81       0.00       0.00       0.40       0.55       0.00       0.39        0.11     1.76   0.474
  Sub_29                     0.81       0.00       0.00       0.37       0.59       0.00       0.41        0.05     0.80   0.508
  Sub_3                      0.81       0.00       0.00       0.32       0.56       0.08       0.47        0.04     0.67   0.578
  Sub_30                     0.81       0.00       0.00       0.38       0.57       0.00       0.40        0.03     0.46   0.494
  Sub_31                     0.81       0.00       0.00       0.40       0.56       0.00       0.39        0.03     0.50   0.481
  Sub_32                     0.81       0.00       0.00       0.37       0.60       0.00       0.42        0.09     1.39   0.514
  Sub_33                     0.81       0.00       0.00       0.32       0.64       0.01       0.46        0.04     0.65   0.571
  Sub_34                     0.81       0.00       0.00       0.44       0.50       0.00       0.35        0.02     0.35   0.434
  Sub_35                     0.81       0.00       0.00       0.41       0.54       0.00       0.38        0.03     0.46   0.468
  Sub_36                     0.81       0.00       0.00       0.52       0.39       0.00       0.27        0.01     0.17   0.334
  Sub_37                     0.81       0.00       0.00       0.36       0.60       0.00       0.42        0.02     0.35   0.521
  Sub_38                     0.81       0.00       0.00       0.39       0.57       0.00       0.40        0.05     0.76   0.488
  Sub_39                     0.81       0.00       0.00       0.49       0.43       0.00       0.30        0.10     1.57   0.374
  Sub_4                      0.81       0.00       0.00       0.33       0.64       0.01       0.45        0.03     0.42   0.557
  Sub_5                      0.81       0.00       0.00       0.10       0.74       0.16       0.68        0.04     0.64   0.836
  Sub_6                      0.81       0.00       0.00       0.29       0.66       0.03       0.49        0.02     0.39   0.606
  Sub_7                      0.81       0.00       0.00       0.38       0.58       0.00       0.41        0.01     0.15   0.501
  Sub_8                      0.81       0.00       0.00       0.59       0.30       0.00       0.21        0.00     0.03   0.261
  Sub_9                      0.81       0.00       0.00       0.57       0.33       0.00       0.23        0.03     0.45   0.281
  

  ***********************
  LID Performance Summary
  ***********************

  --------------------------------------------------------------------------------------------------------------------
                                         Total      Evap     Infil   Surface    Drain    Initial     Final  Continuity
                                        Inflow      Loss      Loss   Outflow   Outflow   Storage   Storage       Error
  Subcatchment      LID Control             in        in        in        in        in        in        in           %
  --------------------------------------------------------------------------------------------------------------------
  Sub_14            rain_garden           0.81      0.00      0.00      0.00      0.00      2.40      3.21       -0.00
  Sub_14            rain_barrel          60.68      0.00      0.00     26.43      0.00      0.00     34.25       -0.00
  
  ******************
  Node Depth Summary
  ******************
  
  ---------------------------------------------------------------------------------
                                 Average  Maximum  Maximum  Time of Max    Reported
                                   Depth    Depth      HGL   Occurrence   Max Depth
  Node                 Type         Feet     Feet     Feet  days hr:min        Feet
  ---------------------------------------------------------------------------------
  J1                   JUNCTION     4.41     7.02     0.91     0  18:19        6.97
  J10                  JUNCTION     4.56     7.18     0.88     0  18:21        7.15
  J103                 JUNCTION     4.47     7.07     0.88     0  18:20        7.06
  J104                 JUNCTION     4.49     7.11     0.89     0  18:20        7.08
  J11                  JUNCTION     0.19     0.94     0.94     0  18:20        0.94
  J118                 JUNCTION     4.46     7.06     0.88     0  18:20        7.06
  J12                  JUNCTION     0.96     5.83     4.34     0  18:13        2.39
  J121                 JUNCTION     0.60     6.78     5.77     0  18:13        1.90
  J126                 JUNCTION     0.17     0.59     3.29     0  18:15        0.59
  J13                  JUNCTION     4.43     7.02     0.89     0  18:19        7.00
  J14                  JUNCTION     4.56     7.19     0.89     0  18:22        7.15
  J147                 JUNCTION     0.31     1.02     3.02     0  18:15        1.02
  J151                 JUNCTION     4.55     7.17     0.88     0  18:21        7.14
  J156                 JUNCTION     0.13     0.43     2.43     0  18:15        0.43
  J17                  JUNCTION     1.46     3.32     1.11     0  18:19        3.06
  J18                  JUNCTION     4.55     7.17     0.89     0  18:21        7.15
  J2                   JUNCTION     0.30     1.38     1.01     0  18:22        1.28
  J23                  JUNCTION     0.32     1.02     3.00     0  18:15        1.02
  J25                  JUNCTION     0.57     6.09     5.14     0  18:19        1.84
  J26                  JUNCTION     0.91     4.99     3.55     0  18:19        2.31
  J27                  JUNCTION     1.44     3.17     1.00     0  18:13        3.02
  J3                   JUNCTION     0.39     1.76     1.20     0  18:18        1.52
  J30                  JUNCTION     4.52     7.13     0.87     0  18:23        7.12
  J32                  JUNCTION     4.50     7.11     0.88     0  18:20        7.09
  J4                   JUNCTION     0.80     2.60     1.40     0  18:19        2.21
  J43                  JUNCTION     1.11     2.62     0.92     0  18:20        2.62
  J44                  JUNCTION     4.46     7.06     0.88     0  18:20        7.05
  J46                  JUNCTION     4.44     7.04     0.88     0  18:20        7.02
  J5                   JUNCTION     0.69     3.72     2.63     0  18:17        2.03
  J50                  JUNCTION     4.44     7.02     0.87     0  18:20        7.01
  J52                  JUNCTION     4.43     7.02     0.89     0  18:19        6.99
  J57                  JUNCTION     1.04     2.56     0.96     0  18:19        2.51
  J6                   JUNCTION     1.39     3.41     1.32     0  18:13        2.95
  J63                  JUNCTION     0.16     0.54     2.41     0  18:15        0.54
  J7                   JUNCTION     0.39     1.55     1.13     0  18:20        1.53
  J70                  JUNCTION     0.06     0.19     2.19     0  18:15        0.19
  J71                  JUNCTION     0.09     0.31     2.12     0  18:15        0.31
  J8                   JUNCTION     0.86     8.64     7.27     0  18:13        2.25
  J89                  JUNCTION     0.61     1.96     0.96     0  18:23        1.86
  J9                   JUNCTION     1.47     3.10     0.91     0  18:22        3.05
  J96                  JUNCTION     1.28     2.85     0.88     0  18:20        2.83
  outfall              OUTFALL      6.72     7.50     1.20     0  18:00        7.50
  J155                 STORAGE      3.25     4.36     0.36     0  20:43        4.35
  
  
  *******************
  Node Inflow Summary
  *******************
  
  -------------------------------------------------------------------------------------------------
                                  Maximum  Maximum                  Lateral       Total        Flow
                                  Lateral    Total  Time of Max      Inflow      Inflow     Balance
                                   Inflow   Inflow   Occurrence      Volume      Volume       Error
  Node                 Type           CFS      CFS  days hr:min    10^6 gal    10^6 gal     Percent
  -------------------------------------------------------------------------------------------------
  J1                   JUNCTION      0.92     9.92     0  18:22       0.057       0.592       5.703
  J10                  JUNCTION      0.03    10.60     0  20:48     0.00212       0.511       7.485
  J103                 JUNCTION      0.44    15.82     0  18:21      0.0274       0.772       5.910
  J104                 JUNCTION      0.00    24.21     0  18:20           0        1.03       3.444
  J11                  JUNCTION      0.42     0.46     0  18:13      0.0268      0.0268       0.780
  J118                 JUNCTION      0.58    15.43     0  18:21       0.034        1.07       0.266
  J12                  JUNCTION      1.19     2.69     0  18:13      0.0689       0.131       1.486
  J121                 JUNCTION      0.40     0.49     0  18:12      0.0248      0.0266       0.385
  J126                 JUNCTION      1.39     1.39     0  18:15      0.0866      0.0866      -0.003
  J13                  JUNCTION      1.55    13.55     0  18:22      0.0969       0.659       2.608
  J14                  JUNCTION      0.00    11.33     0  20:48           0       0.352       9.236
  J147                 JUNCTION      1.57     1.57     0  18:15      0.0985      0.0985       0.000
  J151                 JUNCTION      0.00    10.05     0  20:48           0       0.482       2.916
  J156                 JUNCTION      0.50     0.50     0  18:15      0.0308      0.0308      -0.002
  J17                  JUNCTION      0.15     1.49     0  18:17      0.0095      0.0817       4.277
  J18                  JUNCTION      0.00    10.10     0  20:48           0       0.458       8.399
  J2                   JUNCTION      0.52     0.52     0  18:10      0.0323       0.033      -0.260
  J23                  JUNCTION      0.76     2.33     0  18:15       0.047       0.146       0.001
  J25                  JUNCTION      0.64     0.87     0  18:03      0.0372      0.0394       0.147
  J26                  JUNCTION      0.39     1.55     0  18:04      0.0226      0.0663       3.005
  J27                  JUNCTION      0.00     3.24     0  18:24           0       0.185      -0.224
  J3                   JUNCTION      0.46     1.47     0  18:15      0.0285      0.0927       0.019
  J30                  JUNCTION      0.48     9.34     0  20:49      0.0299       0.507      13.406
  J32                  JUNCTION      0.32    10.57     0  20:47      0.0204       0.586       7.591
  J4                   JUNCTION      0.83     6.50     0  18:21      0.0516       0.378       0.299
  J43                  JUNCTION      1.76     1.76     0  18:15       0.111       0.112       1.349
  J44                  JUNCTION      0.00    19.17     1  01:27           0        1.06       3.512
  J46                  JUNCTION      0.42    14.00     0  18:19      0.0259       0.649       4.220
  J5                   JUNCTION      0.35     2.03     0  18:19      0.0219       0.119       0.442
  J50                  JUNCTION      0.00    13.82     0  18:19           0       0.647       3.433
  J52                  JUNCTION      0.34    11.89     0  18:22      0.0209       0.587       4.978
  J57                  JUNCTION      0.46     8.73     0  18:21      0.0288       0.531       0.778
  J6                   JUNCTION      0.97     3.24     0  18:24      0.0567       0.187       1.566
  J63                  JUNCTION      0.65     4.34     0  18:15      0.0403       0.272      -0.026
  J7                   JUNCTION      0.80     5.14     0  18:15      0.0499       0.323      -0.047
  J70                  JUNCTION      0.17     0.17     0  18:15      0.0105      0.0105      -0.014
  J71                  JUNCTION      0.35     1.01     0  18:15      0.0215      0.0629      -0.148
  J8                   JUNCTION      0.28     1.27     0  18:10      0.0176      0.0479       4.308
  J89                  JUNCTION      0.34     1.60     0  18:09      0.0212      0.0589       0.594
  J9                   JUNCTION      0.45     3.66     0  18:24       0.028       0.214       0.765
  J96                  JUNCTION      0.52     0.52     0  18:15       0.032      0.0375       2.176
  outfall              OUTFALL       0.67    11.48     0  20:48      0.0356        0.33       0.000
  J155                 STORAGE       1.29    23.37     0  18:20      0.0804        1.27      -0.001
  
  
  **********************
  Node Surcharge Summary
  **********************
  
  Surcharging occurs when water rises above the top of the highest conduit.
  ---------------------------------------------------------------------
                                               Max. Height   Min. Depth
                                   Hours       Above Crown    Below Rim
  Node                 Type      Surcharged           Feet         Feet
  ---------------------------------------------------------------------
  J12                  JUNCTION        1.79          3.826        0.253
  J121                 JUNCTION        1.98          5.276        2.720
  J17                  JUNCTION        4.36          1.569        3.414
  J2                   JUNCTION        0.13          0.135        6.299
  J25                  JUNCTION        0.49          4.345        3.323
  J26                  JUNCTION        2.60          3.239        2.951
  J27                  JUNCTION        3.62          1.166        1.737
  J3                   JUNCTION        0.09          0.264        7.357
  J4                   JUNCTION        0.63          0.602        5.025
  J43                  JUNCTION        3.73          1.120        6.030
  J5                   JUNCTION        2.38          2.216        5.250
  J6                   JUNCTION        3.47          1.412        2.422
  J8                   JUNCTION        2.95          7.137        0.000
  J9                   JUNCTION        3.71          1.105        1.335
  J96                  JUNCTION        4.38          1.348        2.305
  
  
  *********************
  Node Flooding Summary
  *********************
  
  Flooding refers to all water that overflows a node, whether it ponds or not.
  --------------------------------------------------------------------------
                                                             Total   Maximum
                                 Maximum   Time of Max       Flood    Ponded
                        Hours       Rate    Occurrence      Volume     Depth
  Node                 Flooded       CFS   days hr:min    10^6 gal      Feet
  --------------------------------------------------------------------------
  J8                      0.01      0.71      0  18:13       0.000     0.000
  
  
  **********************
  Storage Volume Summary
  **********************
  
  ------------------------------------------------------------------------------------------------
                         Average    Avg   Evap  Exfil     Maximum    Max    Time of Max    Maximum
                          Volume   Pcnt   Pcnt   Pcnt      Volume   Pcnt     Occurrence    Outflow
  Storage Unit          1000 ft³   Full   Loss   Loss    1000 ft³   Full    days hr:min        CFS
  ------------------------------------------------------------------------------------------------
  J155                   122.561   38.9    0.0    0.0     169.956   54.0       0  20:43       5.23
  
  
  ***********************
  Outfall Loading Summary
  ***********************
  
  -----------------------------------------------------------
                         Flow       Avg       Max       Total
                         Freq      Flow      Flow      Volume
  Outfall Node           Pcnt       CFS       CFS    10^6 gal
  -----------------------------------------------------------
  outfall               51.71      1.54     11.48       0.330
  -----------------------------------------------------------
  System                51.71      1.54     11.48       0.330
  
  
  ********************
  Link Flow Summary
  ********************
  
  -----------------------------------------------------------------------------
                                 Maximum  Time of Max   Maximum    Max/    Max/
                                  |Flow|   Occurrence   |Veloc|    Full    Full
  Link                 Type          CFS  days hr:min    ft/sec    Flow   Depth
  -----------------------------------------------------------------------------
  C103_1               CONDUIT      1.01     0  18:15      2.62    0.09    0.60
  C103_3               CONDUIT      1.69     0  18:19      2.62    0.28    1.00
  C103_4               CONDUIT      2.03     0  18:19      2.79    0.33    1.00
  C108                 CONDUIT      0.17     0  18:15      0.97    0.05    0.20
  C110                 CONDUIT      1.76     0  18:15      2.98    0.32    1.00
  C125_1               CONDUIT      9.05     0  18:22      7.02    0.11    0.93
  C125_2               CONDUIT     11.58     0  18:22      0.98    0.15    0.88
  C147                 CONDUIT      5.71     0  18:21      3.88    0.43    0.89
  C147_2               CONDUIT      6.42     0  18:21      5.47    0.49    1.00
  C147_5               CONDUIT      4.34     0  18:15      4.37    0.16    0.52
  C15                  CONDUIT      1.34     0  18:17      2.36    0.15    1.00
  C152                 CONDUIT      2.33     0  18:15      2.87    1.52    0.62
  C152_1               CONDUIT      1.57     0  18:15      1.46    1.04    0.81
  C158                 CONDUIT      1.48     0  18:17      2.76    0.16    1.00
  C159                 CONDUIT     10.22     0  20:48      0.31    0.13    0.90
  C160                 CONDUIT      9.99     0  20:48      0.30    0.13    0.90
  C167                 CONDUIT     10.36     0  20:47      0.41    0.13    0.89
  C168                 CONDUIT     22.12     0  18:20     10.15    0.29    0.66
  C174                 CONDUIT      0.50     0  18:15      1.88    0.36    0.37
  C18_1                CONDUIT     12.05     0  18:22      0.91    0.15    0.88
  C18_2                CONDUIT     13.82     0  18:19      1.02    0.17    0.88
  C2                   CONDUIT     13.60     0  18:19      0.91    0.17    0.88
  C26                  CONDUIT      0.57     0  18:20      2.41    0.23    0.97
  C27                  CONDUIT      0.64     0  18:24      2.01    0.17    1.00
  C38                  CONDUIT      0.56     0  17:58      2.20    0.09    1.00
  C47                  CONDUIT      1.06     0  18:07      1.86    0.11    1.00
  C57                  CONDUIT     15.60     0  18:20      0.67    0.20    0.89
  C62                  CONDUIT      9.33     0  20:49      0.43    0.12    0.89
  C64                  CONDUIT      1.51     0  18:13      1.72    0.11    0.99
  C64_2                CONDUIT      2.30     0  18:24      2.50    0.17    1.00
  C68_1                CONDUIT      3.24     0  18:24      3.08    0.26    1.00
  C68_2                CONDUIT      3.24     0  18:24      3.06    0.26    1.00
  C69                  CONDUIT      3.66     0  18:24      3.65    0.28    1.00
  C70_1                CONDUIT     11.29     0  20:48      0.34    0.16    0.72
  C70_2                CONDUIT     11.46     0  20:48      0.35    0.08    0.73
  C78                  CONDUIT     10.10     0  20:48      0.31    0.13    0.89
  C84                  CONDUIT     15.41     0  18:21      0.87    0.19    0.88
  C85                  CONDUIT     18.48     1  01:27      0.87    0.21    0.88
  C86                  CONDUIT     13.56     0  18:19      0.83    0.17    0.88
  C90_1                CONDUIT      0.99     0  18:10      1.54    0.25    1.00
  C90_2                CONDUIT      0.83     0  18:10      2.36    0.21    1.00
  C96                  CONDUIT      1.39     0  18:15      2.57    0.44    0.45
  
  
  ***************************
  Flow Classification Summary
  ***************************
  
  -------------------------------------------------------------------------------------
                      Adjusted    ---------- Fraction of Time in Flow Class ---------- 
                       /Actual         Up    Down  Sub   Sup   Up    Down  Norm  Inlet 
  Conduit               Length    Dry  Dry   Dry   Crit  Crit  Crit  Crit  Ltd   Ctrl  
  -------------------------------------------------------------------------------------
  C103_1                  1.00   0.31  0.00  0.00  0.69  0.00  0.00  0.00  0.64  0.00
  C103_3                  1.00   0.31  0.00  0.00  0.69  0.00  0.00  0.00  0.59  0.00
  C103_4                  1.00   0.31  0.00  0.00  0.69  0.00  0.00  0.00  0.03  0.00
  C108                    1.00   0.31  0.00  0.00  0.69  0.00  0.00  0.00  0.47  0.00
  C110                    1.00   0.31  0.00  0.00  0.63  0.00  0.00  0.06  0.00  0.00
  C125_1                  1.00   0.31  0.00  0.00  0.63  0.00  0.00  0.05  0.01  0.00
  C125_2                  1.00   0.31  0.00  0.00  0.69  0.00  0.00  0.00  0.00  0.00
  C147                    1.00   0.31  0.00  0.00  0.69  0.00  0.00  0.00  0.59  0.00
  C147_2                  1.00   0.31  0.00  0.00  0.66  0.03  0.00  0.00  0.00  0.00
  C147_5                  1.00   0.31  0.00  0.00  0.65  0.03  0.00  0.00  0.69  0.00
  C15                     1.00   0.31  0.00  0.00  0.69  0.00  0.00  0.00  0.05  0.00
  C152                    1.00   0.31  0.00  0.00  0.69  0.00  0.00  0.00  0.00  0.00
  C152_1                  1.00   0.31  0.00  0.00  0.69  0.00  0.00  0.00  0.37  0.00
  C158                    1.00   0.31  0.00  0.00  0.63  0.00  0.00  0.06  0.00  0.00
  C159                    1.00   0.31  0.00  0.00  0.68  0.00  0.00  0.00  0.00  0.00
  C160                    1.00   0.32  0.01  0.00  0.67  0.00  0.00  0.00  0.00  0.00
  C167                    1.00   0.32  0.01  0.00  0.67  0.00  0.00  0.00  0.00  0.00
  C168                    1.00   0.37  0.00  0.00  0.55  0.03  0.04  0.00  0.57  0.00
  C174                    1.00   0.31  0.00  0.00  0.69  0.00  0.00  0.00  0.02  0.00
  C18_1                   1.00   0.31  0.00  0.00  0.68  0.00  0.00  0.00  0.01  0.00
  C18_2                   1.00   0.31  0.00  0.00  0.69  0.00  0.00  0.00  0.00  0.00
  C2                      1.00   0.31  0.01  0.00  0.68  0.00  0.00  0.00  0.01  0.00
  C26                     1.00   0.31  0.02  0.00  0.60  0.00  0.00  0.06  0.56  0.00
  C27                     1.00   0.31  0.00  0.00  0.69  0.00  0.00  0.00  0.59  0.00
  C38                     1.00   0.31  0.00  0.00  0.63  0.00  0.00  0.06  0.00  0.00
  C47                     1.00   0.31  0.00  0.00  0.69  0.00  0.00  0.00  0.06  0.00
  C57                     1.00   0.32  0.00  0.00  0.68  0.00  0.00  0.00  0.00  0.00
  C62                     1.00   0.31  0.00  0.00  0.68  0.00  0.00  0.00  0.00  0.00
  C64                     1.00   0.31  0.00  0.00  0.69  0.00  0.00  0.00  0.06  0.00
  C64_2                   1.00   0.31  0.00  0.00  0.69  0.00  0.00  0.00  0.06  0.00
  C68_1                   1.00   0.31  0.00  0.00  0.69  0.00  0.00  0.00  0.00  0.00
  C68_2                   1.00   0.31  0.00  0.00  0.69  0.00  0.00  0.00  0.02  0.00
  C69                     1.00   0.31  0.00  0.00  0.63  0.00  0.00  0.06  0.00  0.00
  C70_1                   1.00   0.32  0.01  0.00  0.68  0.00  0.00  0.00  0.00  0.00
  C70_2                   1.00   0.00  0.00  0.00  1.00  0.00  0.00  0.00  0.00  0.00
  C78                     1.00   0.31  0.00  0.00  0.69  0.00  0.00  0.00  0.00  0.00
  C84                     1.00   0.31  0.00  0.00  0.69  0.00  0.00  0.00  0.00  0.00
  C85                     1.00   0.31  0.01  0.00  0.68  0.00  0.00  0.00  0.00  0.00
  C86                     1.00   0.31  0.00  0.00  0.69  0.00  0.00  0.00  0.01  0.00
  C90_1                   1.00   0.31  0.00  0.00  0.69  0.00  0.00  0.00  0.04  0.00
  C90_2                   1.00   0.31  0.00  0.00  0.63  0.00  0.00  0.06  0.00  0.00
  C96                     1.00   0.31  0.00  0.00  0.69  0.00  0.00  0.00  0.08  0.00
  
  
  *************************
  Conduit Surcharge Summary
  *************************
  
  ----------------------------------------------------------------------------
                                                           Hours        Hours 
                         --------- Hours Full --------   Above Full   Capacity
  Conduit                Both Ends  Upstream  Dnstream   Normal Flow   Limited
  ----------------------------------------------------------------------------
  C103_1                      0.01      0.01      0.09      0.01         0.01
  C103_3                      0.09      0.09      2.38      0.01         0.01
  C103_4                      2.38      2.38      3.47      0.01         0.01
  C110                        3.73      3.73      4.76      0.01         0.01
  C125_1                      0.01      0.01     30.11      0.01         0.01
  C147                        0.01      0.01      0.63      0.01         0.01
  C147_2                      0.63      0.63      2.41      0.01         0.01
  C15                         2.60      2.60      4.36      0.01         0.01
  C152                        0.01      0.01      0.01      1.73         0.01
  C152_1                      0.01      0.01      0.01      0.50         0.01
  C158                        4.36      4.36      4.60      0.01         0.01
  C26                         0.01      0.01      3.95      0.01         0.01
  C27                         0.13      0.13      2.75      0.01         0.01
  C38                         4.38      4.38     13.98      0.01         0.01
  C47                         0.49      0.49      2.60      0.01         0.01
  C64                         0.01      0.01      1.79      0.01         0.01
  C64_2                       1.79      1.79      3.47      0.01         0.01
  C68_1                       3.47      3.47      3.62      0.01         0.01
  C68_2                       3.62      3.62      3.71      0.01         0.01
  C69                         3.71      3.71      3.96      0.01         0.01
  C90_1                       1.98      1.98      2.95      0.01         0.01
  C90_2                       2.95      2.95     14.41      0.01         0.01
  

  Analysis begun on:  Tue Jun 17 03:00:20 2025
  Analysis ended on:  Tue Jun 17 03:00:23 2025
  Total elapsed time: 00:00:03