
  EPA STORM WATER MANAGEMENT MODEL - VERSION 5.2 (Build 5.2.4)
  PYSWMM TOOLKIT API - VERSION v1.0 (2024-04-17)
  ------------------------------------------------------------

  WARNING 02: maximum depth increased for Node J1
  WARNING 02: maximum depth increased for Node J10
  WARNING 02: maximum depth increased for Node J103
  WARNING 02: maximum depth increased for Node J104
  WARNING 02: maximum depth increased for Node J11
  WARNING 02: maximum depth increased for Node J118
  WARNING 02: maximum depth increased for Node J121
  WARNING 02: maximum depth increased for Node J126
  WARNING 02: maximum depth increased for Node J13
  WARNING 02: maximum depth increased for Node J14
  WARNING 02: maximum depth increased for Node J147
  WARNING 02: maximum depth increased for Node J151
  WARNING 02: maximum depth increased for Node J156
  WARNING 02: maximum depth increased for Node J18
  WARNING 02: maximum depth increased for Node J27
  WARNING 02: maximum depth increased for Node J30
  WARNING 02: maximum depth increased for Node J32
  WARNING 02: maximum depth increased for Node J43
  WARNING 02: maximum depth increased for Node J44
  WARNING 02: maximum depth increased for Node J46
  WARNING 02: maximum depth increased for Node J50
  WARNING 02: maximum depth increased for Node J52
  WARNING 02: maximum depth increased for Node J6
  WARNING 02: maximum depth increased for Node J70
  WARNING 02: maximum depth increased for Node J8
  WARNING 02: maximum depth increased for Node J89
  WARNING 02: maximum depth increased for Node J96
  
  *************
  Element Count
  *************
  Number of rain gages ...... 1
  Number of subcatchments ... 39
  Number of nodes ........... 43
  Number of links ........... 41
  Number of pollutants ...... 0
  Number of land uses ....... 0
  
  
  ****************
  Raingage Summary
  ****************
                                                      Data       Recording
  Name                 Data Source                    Type       Interval 
  ------------------------------------------------------------------------
  rain_gage            rain_gage_timeseries           VOLUME      15 min.
  
  
  ********************
  Subcatchment Summary
  ********************
  Name                       Area     Width   %Imperv    %Slope Rain Gage            Outlet              
  -----------------------------------------------------------------------------------------------------------
  Sub_1                      2.62    272.79     55.00    3.9580 rain_gage            J89                 
  Sub_10                     2.19    296.41     77.00    2.4860 rain_gage            J12                 
  Sub_11                     0.67    130.53     57.00    5.0240 rain_gage            J6                  
  Sub_12                     5.31    283.97     49.00    3.4940 rain_gage            J12                 
  Sub_13                     4.38    341.66     50.00    2.9930 rain_gage            J2                  
  Sub_14                    14.91    412.40     52.00    3.9710 rain_gage            J104                
  Sub_15                     3.68    325.75     59.00    4.8800 rain_gage            J96                 
  Sub_16                     2.81    372.64     48.00    3.5770 rain_gage            J32                 
  Sub_17                     4.94    458.98     41.00    4.7410 rain_gage            J30                 
  Sub_18                     1.52    250.00     79.00    2.3090 rain_gage            J8                  
  Sub_19                     2.15    372.00     78.00    3.4760 rain_gage            J121                
  Sub_2                      4.81    406.94     64.00    3.8880 rain_gage            J6                  
  Sub_20                    11.54    261.37     57.00    3.9380 rain_gage            J13                 
  Sub_21                     2.48    159.75     71.00    3.2870 rain_gage            J46                 
  Sub_22                     0.94    200.00     69.00    3.2890 rain_gage            J118                
  Sub_23                     2.95    250.00     63.00    3.6520 rain_gage            J103                
  Sub_24                     5.93    412.94     59.00    3.2030 rain_gage            J4                  
  Sub_25                     3.38    300.00     42.00    3.1260 rain_gage            J52                 
  Sub_26                     6.44    408.85     60.00    3.6440 rain_gage            J1                  
  Sub_27                     2.29    250.00     67.00    3.4680 rain_gage            J118                
  Sub_28                    10.61    229.01     71.00    3.1810 rain_gage            J43                 
  Sub_29                     4.46    300.00     76.00    3.1960 rain_gage            J7                  
  Sub_3                      2.79    466.00     72.00    3.7700 rain_gage            outfall             
  Sub_30                     2.64    390.64     74.00    3.0810 rain_gage            J57                 
  Sub_31                     2.90    292.33     72.00    2.7780 rain_gage            J156                
  Sub_32                     7.63    310.58     77.00    2.8180 rain_gage            J126                
  Sub_33                     3.19    461.41     83.00    3.0790 rain_gage            J63                 
  Sub_34                     2.29    250.00     65.00    2.6240 rain_gage            J5                  
  Sub_35                     2.76    217.64     70.00    2.8170 rain_gage            J3                  
  Sub_36                     1.43    235.88     50.00    2.2300 rain_gage            J70                 
  Sub_37                     1.87    251.70     78.00    3.2300 rain_gage            J71                 
  Sub_38                     4.37    354.85     73.00    3.2410 rain_gage            J23                 
  Sub_39                    11.94    244.72     56.00    2.9530 rain_gage            J147                
  Sub_4                      2.18    358.74     82.00    3.9740 rain_gage            J11                 
  Sub_5                      2.02    268.69     96.00    3.0480 rain_gage            J25                 
  Sub_6                      1.69    314.60     85.00    3.7140 rain_gage            J26                 
  Sub_7                      0.86    147.58     75.00    3.3650 rain_gage            J17                 
  Sub_8                      0.37     73.53     39.00    3.1440 rain_gage            J10                 
  Sub_9                      4.52    345.46     42.00    3.8900 rain_gage            J9                  
  
  
  ************
  Node Summary
  ************
                                           Invert      Max.    Ponded    External
  Name                 Type                 Elev.     Depth      Area    Inflow  
  -------------------------------------------------------------------------------
  J1                   JUNCTION              1.85      6.00    2000.0
  J10                  JUNCTION             -0.60      8.00    2000.0
  J103                 JUNCTION              0.97      6.00    2000.0
  J104                 JUNCTION              0.75      6.00    2000.0
  J11                  JUNCTION              3.77      1.00    2000.0
  J118                 JUNCTION              1.40      6.00    2000.0
  J12                  JUNCTION              2.56      2.55    2000.0
  J121                 JUNCTION              8.42      1.50    2000.0
  J126                 JUNCTION              7.59      1.25    2000.0
  J13                  JUNCTION              1.50      6.00    2000.0
  J14                  JUNCTION             -1.50      8.00    2000.0
  J147                 JUNCTION              6.51      1.26    2000.0
  J151                 JUNCTION             -0.50      6.00    2000.0
  J156                 JUNCTION              8.49      1.00    2000.0
  J17                  JUNCTION              1.63      2.61    2000.0
  J18                  JUNCTION             -0.34      6.00    2000.0
  J2                   JUNCTION              5.36      1.96    2000.0
  J23                  JUNCTION              3.81      2.79    2000.0
  J25                  JUNCTION              5.70      3.27    2000.0
  J26                  JUNCTION              2.89      3.73    2000.0
  J27                  JUNCTION              0.60      2.00    2000.0
  J3                   JUNCTION              6.03      3.12    2000.0
  J30                  JUNCTION             -0.30      6.00    2000.0
  J32                  JUNCTION              0.60      6.00    2000.0
  J4                   JUNCTION              2.25      4.32    2000.0
  J43                  JUNCTION              6.10      1.50    2000.0
  J44                  JUNCTION              1.46      6.00    2000.0
  J46                  JUNCTION              1.48      6.00    2000.0
  J5                   JUNCTION              5.00      3.45    2000.0
  J50                  JUNCTION              1.49      6.00    2000.0
  J52                  JUNCTION              1.65      6.00    2000.0
  J57                  JUNCTION              1.99      5.22    2000.0
  J6                   JUNCTION              1.00      2.00    2000.0
  J63                  JUNCTION              3.04      2.76    2000.0
  J7                   JUNCTION              2.51      3.29    2000.0
  J70                  JUNCTION              8.49      1.25    2000.0
  J71                  JUNCTION              6.49      2.44    2000.0
  J8                   JUNCTION              7.27      1.50    2000.0
  J89                  JUNCTION              3.35      2.00    2000.0
  J9                   JUNCTION              0.00      2.17    2000.0
  J96                  JUNCTION              2.16      1.50    2000.0
  outfall              OUTFALL              -1.60      8.00       0.0
  PumpOutfall          OUTFALL              -1.60      0.00       0.0
  
  
  ************
  Link Summary
  ************
  Name             From Node        To Node          Type            Length    %Slope Roughness
  ---------------------------------------------------------------------------------------------
  C103_1           J71              J3               CONDUIT          380.3    0.1210    0.0100
  C103_3           J3               J5               CONDUIT          261.0    0.3947    0.0100
  C103_4           J5               J57              CONDUIT          252.8    0.4233    0.0100
  C108             J70              J71              CONDUIT          121.0    1.6531    0.0100
  C110             J43              J44              CONDUIT          240.0    0.5292    0.0100
  C125_1           J57              J1               CONDUIT          257.8    0.0543    0.0100
  C125_2           J1               J52              CONDUIT          254.2    0.0787    0.0100
  C147             J7               J4               CONDUIT          393.0    0.0662    0.0100
  C147_2           J4               J57              CONDUIT          194.0    0.1340    0.0100
  C147_5           J63              J7               CONDUIT          273.4    0.1938    0.0100
  C15              J26              J17              CONDUIT          386.0    0.3264    0.0100
  C152             J23              J63              CONDUIT          346.2    0.2224    0.0100
  C152_1           J147             J23              CONDUIT           56.8    4.7550    0.0100
  C158             J17              J151             CONDUIT           40.0    1.5752    0.0100
  C159             J151             J10              CONDUIT           65.0    0.1538    0.0100
  C160             J18              J151             CONDUIT           65.0    0.2462    0.0100
  C167             J104             J32              CONDUIT           77.0    0.1948    0.0100
  C174             J156             J71              CONDUIT          226.0    0.8850    0.0100
  C18_1            J52              J13              CONDUIT           24.9    0.6035    0.0100
  C18_2            J13              J50              CONDUIT          142.9    0.0070    0.0100
  C2               J50              J46              CONDUIT           71.3    0.0140    0.0100
  C26              J11              J14              CONDUIT          445.6    1.1782    0.0100
  C27              J2               J89              CONDUIT          314.9    0.6382    0.0100
  C38              J96              J32              CONDUIT          130.0    0.3538    0.0100
  C47              J25              J26              CONDUIT          241.0    1.1661    0.0100
  C57              J103             J104             CONDUIT          262.0    0.0840    0.0100
  C62              J32              J30              CONDUIT          305.9    0.2942    0.0100
  C64              J89              J12              CONDUIT          237.9    0.3321    0.0100
  C64_2            J12              J6               CONDUIT          303.5    0.5140    0.0100
  C68_1            J6               J27              CONDUIT           38.4    1.0422    0.0100
  C68_2            J27              J9               CONDUIT           19.2    3.1309    0.0100
  C69              J9               J10              CONDUIT           52.0    0.8654    0.0100
  C70_1            J10              J14              CONDUIT          279.9    0.3216    0.0100
  C70_2            J14              outfall          CONDUIT            5.5    1.8285    0.0100
  C78              J30              J18              CONDUIT          281.0    0.0142    0.0100
  C84              J118             J103             CONDUIT          163.0    0.2638    0.0100
  C85              J44              J118             CONDUIT            8.0    0.7500    0.0100
  C86              J46              J44              CONDUIT          189.0    0.0106    0.0100
  C90_1            J121             J8               CONDUIT          179.1    0.6423    0.0100
  C90_2            J8               J32              CONDUIT          429.7    1.1683    0.0100
  C96              J126             J63              CONDUIT          582.0    0.6770    0.0100
  
  
  *********************
  Cross Section Summary
  *********************
                                        Full     Full     Hyd.     Max.   No. of     Full
  Conduit          Shape               Depth     Area     Rad.    Width  Barrels     Flow
  ---------------------------------------------------------------------------------------
  C103_1           CIRCULAR             1.50     1.77     0.38     1.50        1     4.75
  C103_3           CIRCULAR             1.50     1.77     0.38     1.50        1     8.58
  C103_4           CIRCULAR             1.50     1.77     0.38     1.50        1     8.89
  C108             CIRCULAR             1.25     1.23     0.31     1.25        1    10.80
  C110             CIRCULAR             1.50     1.77     0.38     1.50        1     9.93
  C125_1           CIRCULAR             3.00     7.07     0.75     3.00        1    20.20
  C125_2           RECT_CLOSED          6.00    30.00     1.36     5.00        1   153.78
  C147             CIRCULAR             2.00     3.14     0.50     2.00        1     7.56
  C147_2           CIRCULAR             2.00     3.14     0.50     2.00        1    10.77
  C147_5           CIRCULAR             2.01     3.16     0.50     2.01        1    13.07
  C15              CIRCULAR             1.75     2.41     0.44     1.75        1    11.77
  C152             CIRCULAR             1.26     1.24     0.31     1.26        1     4.01
  C152_1           CIRCULAR             1.26     1.24     0.31     1.26        1    18.55
  C158             CIRCULAR             1.75     2.41     0.44     1.75        1    25.85
  C159             RECT_CLOSED          6.00    30.00     1.36     5.00        1   215.02
  C160             RECT_CLOSED          6.00    30.00     1.36     5.00        1   271.98
  C167             RECT_CLOSED          6.00    30.00     1.36     5.00        1   241.96
  C174             CIRCULAR             1.00     0.79     0.25     1.00        1     4.36
  C18_1            RECT_CLOSED          6.00    30.00     1.36     5.00        1   425.87
  C18_2            RECT_CLOSED          6.00    30.00     1.36     5.00        1    45.86
  C2               RECT_CLOSED          6.00    30.00     1.36     5.00        1    64.94
  C26              CIRCULAR             1.00     0.79     0.25     1.00        1     5.03
  C27              CIRCULAR             1.25     1.23     0.31     1.25        1     6.71
  C38              CIRCULAR             1.50     1.77     0.38     1.50        1     8.12
  C47              CIRCULAR             1.75     2.41     0.44     1.75        1    22.24
  C57              RECT_CLOSED          6.00    30.00     1.36     5.00        1   158.85
  C62              RECT_CLOSED          6.00    30.00     1.36     5.00        1   297.34
  C64              CIRCULAR             2.00     3.14     0.50     2.00        1    16.95
  C64_2            CIRCULAR             2.00     3.14     0.50     2.00        1    21.09
  C68_1            CIRCULAR             2.00     3.14     0.50     2.00        1    30.02
  C68_2            CIRCULAR             2.00     3.14     0.50     2.00        1    52.04
  C69              CIRCULAR             2.00     3.14     0.50     2.00        1    27.36
  C70_1            RECT_CLOSED          8.00    40.00     1.54     5.00        1   449.19
  C70_2            RECT_CLOSED          8.00    40.00     1.54     5.00        1  1071.14
  C78              RECT_CLOSED          6.00    30.00     1.36     5.00        1    65.41
  C84              RECT_CLOSED          6.00    30.00     1.36     5.00        1   281.57
  C85              RECT_CLOSED          6.00    30.00     1.36     5.00        1   474.76
  C86              RECT_CLOSED          6.00    30.00     1.36     5.00        1    56.39
  C90_1            RECT_CLOSED          1.50     1.36     0.28     0.91        1     7.01
  C90_2            RECT_CLOSED          1.50     1.36     0.28     0.91        1     9.45
  C96              CIRCULAR             1.25     1.23     0.31     1.25        1     6.91
  
  
  ****************
  Analysis Options
  ****************
  Flow Units ............... CFS
  Process Models:
    Rainfall/Runoff ........ YES
    RDII ................... NO
    Snowmelt ............... NO
    Groundwater ............ NO
    Flow Routing ........... YES
    Ponding Allowed ........ YES
    Water Quality .......... NO
  Infiltration Method ...... GREEN_AMPT
  Flow Routing Method ...... DYNWAVE
  Surcharge Method ......... EXTRAN
  Starting Date ............ 05/31/2025 12:00:00
  Ending Date .............. 05/31/2025 21:00:00
  Antecedent Dry Days ...... 0.0
  Report Time Step ......... 00:05:00
  Wet Time Step ............ 00:05:00
  Dry Time Step ............ 00:05:00
  Routing Time Step ........ 5.00 sec
  Variable Time Step ....... YES
  Maximum Trials ........... 8
  Number of Threads ........ 2
  Head Tolerance ........... 0.005000 ft
  
  
  *********************
  Control Actions Taken
  *********************

  
  **************************        Volume         Depth
  Runoff Quantity Continuity     acre-feet        inches
  **************************     ---------       -------
  Total Precipitation ......         0.000         0.000
  Evaporation Loss .........         0.000         0.000
  Infiltration Loss ........         0.000         0.000
  Surface Runoff ...........         0.000         0.000
  Final Storage ............         0.000         0.000
  Continuity Error (%) .....         0.000
  
  
  **************************        Volume        Volume
  Flow Routing Continuity        acre-feet      10^6 gal
  **************************     ---------     ---------
  Dry Weather Inflow .......         0.000         0.000
  Wet Weather Inflow .......         0.000         0.000
  Groundwater Inflow .......         0.000         0.000
  RDII Inflow ..............         0.000         0.000
  External Inflow ..........         3.410         1.111
  External Outflow .........         3.141         1.024
  Flooding Loss ............         0.000         0.000
  Evaporation Loss .........         0.000         0.000
  Exfiltration Loss ........         0.000         0.000
  Initial Stored Volume ....         0.001         0.000
  Final Stored Volume ......         0.189         0.062
  Continuity Error (%) .....         2.374
  
  
  *************************
  Highest Continuity Errors
  *************************
  Node J89 (18.14%)
  Node J27 (-11.71%)
  Node J63 (8.76%)
  Node J30 (4.12%)
  Node J14 (3.96%)
  
  
  ***************************
  Time-Step Critical Elements
  ***************************
  Link C70_2 (53.24%)
  Link C85 (34.63%)
  Link C68_1 (2.16%)
  Link C68_2 (1.30%)
  Link C158 (1.13%)
  
  
  ********************************
  Highest Flow Instability Indexes
  ********************************
  Link C68_2 (5)
  Link C70_2 (5)
  Link C159 (4)
  Link C160 (4)
  Link C68_1 (3)
  
  
  *********************************
  Most Frequent Nonconverging Nodes
  *********************************
  Node outfall (0.21%)
  Node PumpOutfall (0.21%)
  Node J27 (0.17%)
  Node J14 (0.03%)
  Node J96 (0.00%)
  
  
  *************************
  Routing Time Step Summary
  *************************
  Minimum Time Step           :     0.42 sec
  Average Time Step           :     1.22 sec
  Maximum Time Step           :     5.00 sec
  % of Time in Steady State   :     0.00
  Average Iterations per Step :     2.06
  % of Steps Not Converging   :     0.21
  Time Step Frequencies       :
      5.000 -  3.155 sec      :     9.11 %
      3.155 -  1.991 sec      :     6.73 %
      1.991 -  1.256 sec      :     8.07 %
      1.256 -  0.792 sec      :    22.78 %
      0.792 -  0.500 sec      :    53.31 %
  
  
  ***************************
  Subcatchment Runoff Summary
  ***************************
  
  ------------------------------------------------------------------------------------------------------------------------------
                            Total      Total      Total      Total     Imperv       Perv      Total       Total     Peak  Runoff
                           Precip      Runon       Evap      Infil     Runoff     Runoff     Runoff      Runoff   Runoff   Coeff
  Subcatchment                 in         in         in         in         in         in         in    10^6 gal      CFS
  ------------------------------------------------------------------------------------------------------------------------------
  Sub_1                      0.00       0.00       0.00       0.00       0.00       0.00       0.00        0.00     0.00   0.000
  Sub_10                     0.00       0.00       0.00       0.00       0.00       0.00       0.00        0.00     0.00   0.000
  Sub_11                     0.00       0.00       0.00       0.00       0.00       0.00       0.00        0.00     0.00   0.000
  Sub_12                     0.00       0.00       0.00       0.00       0.00       0.00       0.00        0.00     0.00   0.000
  Sub_13                     0.00       0.00       0.00       0.00       0.00       0.00       0.00        0.00     0.00   0.000
  Sub_14                     0.00       0.00       0.00       0.00       0.00       0.00       0.00        0.00     0.00   0.000
  Sub_15                     0.00       0.00       0.00       0.00       0.00       0.00       0.00        0.00     0.00   0.000
  Sub_16                     0.00       0.00       0.00       0.00       0.00       0.00       0.00        0.00     0.00   0.000
  Sub_17                     0.00       0.00       0.00       0.00       0.00       0.00       0.00        0.00     0.00   0.000
  Sub_18                     0.00       0.00       0.00       0.00       0.00       0.00       0.00        0.00     0.00   0.000
  Sub_19                     0.00       0.00       0.00       0.00       0.00       0.00       0.00        0.00     0.00   0.000
  Sub_2                      0.00       0.00       0.00       0.00       0.00       0.00       0.00        0.00     0.00   0.000
  Sub_20                     0.00       0.00       0.00       0.00       0.00       0.00       0.00        0.00     0.00   0.000
  Sub_21                     0.00       0.00       0.00       0.00       0.00       0.00       0.00        0.00     0.00   0.000
  Sub_22                     0.00       0.00       0.00       0.00       0.00       0.00       0.00        0.00     0.00   0.000
  Sub_23                     0.00       0.00       0.00       0.00       0.00       0.00       0.00        0.00     0.00   0.000
  Sub_24                     0.00       0.00       0.00       0.00       0.00       0.00       0.00        0.00     0.00   0.000
  Sub_25                     0.00       0.00       0.00       0.00       0.00       0.00       0.00        0.00     0.00   0.000
  Sub_26                     0.00       0.00       0.00       0.00       0.00       0.00       0.00        0.00     0.00   0.000
  Sub_27                     0.00       0.00       0.00       0.00       0.00       0.00       0.00        0.00     0.00   0.000
  Sub_28                     0.00       0.00       0.00       0.00       0.00       0.00       0.00        0.00     0.00   0.000
  Sub_29                     0.00       0.00       0.00       0.00       0.00       0.00       0.00        0.00     0.00   0.000
  Sub_3                      0.00       0.00       0.00       0.00       0.00       0.00       0.00        0.00     0.00   0.000
  Sub_30                     0.00       0.00       0.00       0.00       0.00       0.00       0.00        0.00     0.00   0.000
  Sub_31                     0.00       0.00       0.00       0.00       0.00       0.00       0.00        0.00     0.00   0.000
  Sub_32                     0.00       0.00       0.00       0.00       0.00       0.00       0.00        0.00     0.00   0.000
  Sub_33                     0.00       0.00       0.00       0.00       0.00       0.00       0.00        0.00     0.00   0.000
  Sub_34                     0.00       0.00       0.00       0.00       0.00       0.00       0.00        0.00     0.00   0.000
  Sub_35                     0.00       0.00       0.00       0.00       0.00       0.00       0.00        0.00     0.00   0.000
  Sub_36                     0.00       0.00       0.00       0.00       0.00       0.00       0.00        0.00     0.00   0.000
  Sub_37                     0.00       0.00       0.00       0.00       0.00       0.00       0.00        0.00     0.00   0.000
  Sub_38                     0.00       0.00       0.00       0.00       0.00       0.00       0.00        0.00     0.00   0.000
  Sub_39                     0.00       0.00       0.00       0.00       0.00       0.00       0.00        0.00     0.00   0.000
  Sub_4                      0.00       0.00       0.00       0.00       0.00       0.00       0.00        0.00     0.00   0.000
  Sub_5                      0.00       0.00       0.00       0.00       0.00       0.00       0.00        0.00     0.00   0.000
  Sub_6                      0.00       0.00       0.00       0.00       0.00       0.00       0.00        0.00     0.00   0.000
  Sub_7                      0.00       0.00       0.00       0.00       0.00       0.00       0.00        0.00     0.00   0.000
  Sub_8                      0.00       0.00       0.00       0.00       0.00       0.00       0.00        0.00     0.00   0.000
  Sub_9                      0.00       0.00       0.00       0.00       0.00       0.00       0.00        0.00     0.00   0.000
  
  
  ******************
  Node Depth Summary
  ******************
  
  ---------------------------------------------------------------------------------
                                 Average  Maximum  Maximum  Time of Max    Reported
                                   Depth    Depth      HGL   Occurrence   Max Depth
  Node                 Type         Feet     Feet     Feet  days hr:min        Feet
  ---------------------------------------------------------------------------------
  J1                   JUNCTION     0.42     1.20     3.05     0  00:20        1.20
  J10                  JUNCTION     2.76     3.65     3.05     0  00:16        3.65
  J103                 JUNCTION     1.20     2.08     3.05     0  00:18        2.07
  J104                 JUNCTION     1.41     2.31     3.06     0  00:18        2.30
  J11                  JUNCTION     0.00     0.00     3.77     0  00:00        0.00
  J118                 JUNCTION     0.78     1.65     3.05     0  00:21        1.65
  J12                  JUNCTION     0.08     0.49     3.05     0  00:15        0.48
  J121                 JUNCTION     0.00     0.00     8.42     0  00:00        0.00
  J126                 JUNCTION     0.00     0.00     7.59     0  00:00        0.00
  J13                  JUNCTION     0.70     1.55     3.05     0  00:20        1.55
  J14                  JUNCTION     3.66     4.54     3.04     0  00:15        4.54
  J147                 JUNCTION     0.00     0.00     6.51     0  00:00        0.00
  J151                 JUNCTION     2.66     3.55     3.05     0  00:17        3.54
  J156                 JUNCTION     0.00     0.00     8.49     0  00:00        0.00
  J17                  JUNCTION     0.58     1.43     3.06     0  00:16        1.41
  J18                  JUNCTION     2.50     3.39     3.05     0  00:17        3.38
  J2                   JUNCTION     0.00     0.00     5.36     0  00:00        0.00
  J23                  JUNCTION     0.00     0.00     3.81     0  00:00        0.00
  J25                  JUNCTION     0.00     0.00     5.70     0  00:00        0.00
  J26                  JUNCTION     0.02     0.15     3.04     0  00:18        0.15
  J27                  JUNCTION     1.56     2.45     3.05     0  00:15        2.44
  J3                   JUNCTION     0.00     0.00     6.03     0  00:00        0.00
  J30                  JUNCTION     2.46     3.35     3.05     0  00:16        3.34
  J32                  JUNCTION     1.56     2.45     3.05     0  00:17        2.44
  J4                   JUNCTION     0.20     0.80     3.05     0  00:22        0.79
  J43                  JUNCTION     0.00     0.00     6.10     0  00:00        0.00
  J44                  JUNCTION     0.73     1.59     3.05     0  00:21        1.59
  J46                  JUNCTION     0.72     1.57     3.05     0  00:19        1.56
  J5                   JUNCTION     0.00     0.00     5.00     0  00:00        0.00
  J50                  JUNCTION     0.71     1.56     3.05     0  00:19        1.55
  J52                  JUNCTION     0.57     1.40     3.05     0  00:20        1.40
  J57                  JUNCTION     0.34     1.06     3.05     0  00:21        1.05
  J6                   JUNCTION     1.16     2.05     3.05     0  00:16        2.04
  J63                  JUNCTION     0.00     0.03     3.07     0  00:25        0.03
  J7                   JUNCTION     0.10     0.55     3.06     0  00:24        0.55
  J70                  JUNCTION     0.00     0.00     8.49     0  00:00        0.00
  J71                  JUNCTION     0.00     0.00     6.49     0  00:00        0.00
  J8                   JUNCTION     0.00     0.00     7.27     0  00:00        0.00
  J89                  JUNCTION     0.00     0.00     3.35     0  00:00        0.00
  J9                   JUNCTION     2.16     3.05     3.05     0  00:17        3.04
  J96                  JUNCTION     0.24     0.91     3.07     0  00:31        0.89
  outfall              OUTFALL      3.76     4.64     3.04     0  00:15        4.64
  PumpOutfall          OUTFALL      0.00     0.00    -1.60     0  00:00        0.00
  
  
  *******************
  Node Inflow Summary
  *******************
  
  -------------------------------------------------------------------------------------------------
                                  Maximum  Maximum                  Lateral       Total        Flow
                                  Lateral    Total  Time of Max      Inflow      Inflow     Balance
                                   Inflow   Inflow   Occurrence      Volume      Volume       Error
  Node                 Type           CFS      CFS  days hr:min    10^6 gal    10^6 gal     Percent
  -------------------------------------------------------------------------------------------------
  J1                   JUNCTION      0.00     0.63     0  00:02           0      0.0704      -0.380
  J10                  JUNCTION      0.00     4.63     0  02:23           0       0.669       1.747
  J103                 JUNCTION      0.00     1.35     0  02:28           0        0.22       0.355
  J104                 JUNCTION      0.00     2.32     0  00:00           0       0.327       0.665
  J11                  JUNCTION      0.00     0.00     0  00:00           0    0.000364       0.362
  J118                 JUNCTION      0.00     1.24     0  02:28           0        0.19       0.032
  J12                  JUNCTION      0.00     0.10     0  00:15           0     0.00641      -0.979
  J121                 JUNCTION      0.00     0.00     0  00:00           0           0       0.000 gal
  J126                 JUNCTION      0.00     0.00     0  00:00           0           0       0.000 gal
  J13                  JUNCTION      0.00     0.92     0  02:29           0       0.124       0.083
  J14                  JUNCTION      0.00     4.53     0  02:24           0        1.41       4.120
  J147                 JUNCTION      0.00     0.00     0  00:00           0           0       0.000 gal
  J151                 JUNCTION      0.00     2.74     0  02:25           0       0.542       0.791
  J156                 JUNCTION      0.00     0.00     0  00:00           0           0       0.000 gal
  J17                  JUNCTION      0.00     0.70     0  02:26           0      0.0425       0.328
  J18                  JUNCTION      0.00     2.22     0  02:25           0        0.44       2.118
  J2                   JUNCTION      0.00     0.00     0  00:00           0           0       0.000 gal
  J23                  JUNCTION      0.00     0.00     0  00:00           0           0       0.000 gal
  J25                  JUNCTION      0.00     0.00     0  00:00           0           0       0.000 gal
  J26                  JUNCTION      0.00     0.04     0  00:04           0     0.00504      -0.708
  J27                  JUNCTION      0.00    11.45     0  02:23           0       0.123     -10.484
  J3                   JUNCTION      0.00     0.00     0  00:00           0           0       0.000 gal
  J30                  JUNCTION      0.00     1.89     0  02:27           0       0.365       4.297
  J32                  JUNCTION      0.00     2.01     0  00:01           0       0.382       0.967
  J4                   JUNCTION      0.00     0.17     0  01:41           0      0.0222      -1.317
  J43                  JUNCTION      0.00     0.00     0  00:00           0           0       0.000 gal
  J44                  JUNCTION      0.00     1.15     0  02:29           0       0.175      -0.020
  J46                  JUNCTION      0.00     1.11     0  02:29           0       0.162       0.074
  J5                   JUNCTION      0.00     0.00     0  00:00           0           0       0.000 gal
  J50                  JUNCTION      0.00     1.06     0  02:29           0       0.144       0.019
  J52                  JUNCTION      0.00     0.68     0  02:29           0       0.105      -0.021
  J57                  JUNCTION      0.00     0.31     0  01:41           0      0.0388       1.031
  J6                   JUNCTION      0.00     5.16     0  02:24           0        0.06      -0.334
  J63                  JUNCTION      0.00     0.02     0  00:23           0    0.000829       9.601
  J7                   JUNCTION      0.00     0.10     0  01:18           0      0.0078       2.542
  J70                  JUNCTION      0.00     0.00     0  00:00           0           0       0.000 gal
  J71                  JUNCTION      0.00     0.00     0  00:00           0           0       0.000 gal
  J8                   JUNCTION      0.00     0.00     0  00:00           0           0       0.000 gal
  J89                  JUNCTION      0.00     0.00     0  00:00           0    0.000354      22.165
  J9                   JUNCTION      0.00     9.95     0  02:23           0       0.165       0.195
  J96                  JUNCTION      0.00     0.18     0  00:15           0      0.0118      -6.756
  outfall              OUTFALL       0.00     4.69     0  02:24           0        2.13       0.000
  PumpOutfall          OUTFALL       0.00     0.00     0  00:00           0           0       0.000 gal
  
  
  **********************
  Node Surcharge Summary
  **********************
  
  Surcharging occurs when water rises above the top of the highest conduit.
  ---------------------------------------------------------------------
                                               Max. Height   Min. Depth
                                   Hours       Above Crown    Below Rim
  Node                 Type      Surcharged           Feet         Feet
  ---------------------------------------------------------------------
  J27                  JUNCTION        2.45          0.448        0.000
  J6                   JUNCTION        1.48          0.049        0.000
  J9                   JUNCTION        3.95          1.050        0.000
  
  
  *********************
  Node Flooding Summary
  *********************
  
  Flooding refers to all water that overflows a node, whether it ponds or not.
  --------------------------------------------------------------------------
                                                             Total   Maximum
                                 Maximum   Time of Max       Flood    Ponded
                        Hours       Rate    Occurrence      Volume     Depth
  Node                 Flooded       CFS   days hr:min    10^6 gal      Feet
  --------------------------------------------------------------------------
  J27                     2.42     11.37      0  02:23       0.011     0.448
  J6                      1.46      0.76      0  00:18       0.005     0.049
  J9                      3.52      7.74      0  02:23       0.015     0.876
  
  
  ***********************
  Outfall Loading Summary
  ***********************
  
  -----------------------------------------------------------
                         Flow       Avg       Max       Total
                         Freq      Flow      Flow      Volume
  Outfall Node           Pcnt       CFS       CFS    10^6 gal
  -----------------------------------------------------------
  outfall              100.00      1.75      4.69       2.134
  PumpOutfall            0.00      0.00      0.00       0.000
  -----------------------------------------------------------
  System                50.00      1.75      4.69       2.134
  
  
  ********************
  Link Flow Summary
  ********************
  
  -----------------------------------------------------------------------------
                                 Maximum  Time of Max   Maximum    Max/    Max/
                                  |Flow|   Occurrence   |Veloc|    Full    Full
  Link                 Type          CFS  days hr:min    ft/sec    Flow   Depth
  -----------------------------------------------------------------------------
  C103_1               CONDUIT      0.00     0  00:00      0.00    0.00    0.00
  C103_3               CONDUIT      0.00     0  00:00      0.00    0.00    0.00
  C103_4               CONDUIT      0.00     0  00:00      0.00    0.00    0.00
  C108                 CONDUIT      0.00     0  00:00      0.00    0.00    0.00
  C110                 CONDUIT      0.00     0  00:00      0.00    0.00    0.00
  C125_1               CONDUIT      0.39     0  01:39      0.43    0.02    0.38
  C125_2               CONDUIT      0.68     0  02:29      0.22    0.00    0.22
  C147                 CONDUIT      0.17     0  01:41      0.26    0.02    0.34
  C147_2               CONDUIT      0.31     0  01:41      0.69    0.03    0.47
  C147_5               CONDUIT      0.02     0  00:23      0.09    0.00    0.14
  C15                  CONDUIT      0.06     0  01:32      0.06    0.00    0.45
  C152                 CONDUIT      0.00     0  00:00      0.00    0.00    0.01
  C152_1               CONDUIT      0.00     0  00:00      0.00    0.00    0.00
  C158                 CONDUIT      0.75     0  02:29      0.51    0.03    0.91
  C159                 CONDUIT      2.75     0  02:25      0.19    0.01    0.60
  C160                 CONDUIT      2.72     0  02:26      0.20    0.01    0.58
  C167                 CONDUIT      2.32     0  00:00      0.23    0.01    0.40
  C174                 CONDUIT      0.00     0  00:00      0.00    0.00    0.00
  C18_1                CONDUIT      0.92     0  02:29      0.26    0.00    0.25
  C18_2                CONDUIT      1.06     0  02:29      0.22    0.02    0.26
  C2                   CONDUIT      1.11     0  02:29      0.28    0.02    0.26
  C26                  CONDUIT      0.00     0  00:00      0.00    0.00    0.50
  C27                  CONDUIT      0.00     0  00:00      0.00    0.00    0.00
  C38                  CONDUIT      0.19     0  00:32      0.19    0.02    0.75
  C47                  CONDUIT      0.00     0  00:00      0.00    0.00    0.04
  C57                  CONDUIT      1.41     0  02:27      0.22    0.01    0.37
  C62                  CONDUIT      1.89     0  02:27      0.18    0.01    0.48
  C64                  CONDUIT      0.00     0  00:00      0.00    0.00    0.12
  C64_2                CONDUIT      0.12     0  01:39      0.08    0.01    0.62
  C68_1                CONDUIT      6.48     0  02:23      2.17    0.22    1.00
  C68_2                CONDUIT      9.95     0  02:23      3.17    0.19    1.00
  C69                  CONDUIT      2.85     0  02:24      0.91    0.10    1.00
  C70_1                CONDUIT      4.53     0  02:24      0.25    0.01    0.51
  C70_2                CONDUIT      4.69     0  02:24      0.23    0.00    0.57
  C78                  CONDUIT      2.22     0  02:25      0.19    0.03    0.56
  C84                  CONDUIT      1.35     0  02:28      0.27    0.00    0.31
  C85                  CONDUIT      1.24     0  02:28      1.31    0.00    0.27
  C86                  CONDUIT      1.15     0  02:29      0.38    0.02    0.26
  C90_1                CONDUIT      0.00     0  00:00      0.00    0.00    0.00
  C90_2                CONDUIT      0.00     0  00:00      0.00    0.00    0.27
  C96                  CONDUIT      0.00     0  00:00      0.00    0.00    0.00
  
  
  ***************************
  Flow Classification Summary
  ***************************
  
  -------------------------------------------------------------------------------------
                      Adjusted    ---------- Fraction of Time in Flow Class ---------- 
                       /Actual         Up    Down  Sub   Sup   Up    Down  Norm  Inlet 
  Conduit               Length    Dry  Dry   Dry   Crit  Crit  Crit  Crit  Ltd   Ctrl  
  -------------------------------------------------------------------------------------
  C103_1                  1.00   1.00  0.00  0.00  0.00  0.00  0.00  0.00  0.00  0.00
  C103_3                  1.00   1.00  0.00  0.00  0.00  0.00  0.00  0.00  0.00  0.00
  C103_4                  1.00   1.00  0.00  0.00  0.00  0.00  0.00  0.00  0.00  0.00
  C108                    1.00   1.00  0.00  0.00  0.00  0.00  0.00  0.00  0.00  0.00
  C110                    1.00   1.00  0.00  0.00  0.00  0.00  0.00  0.00  0.00  0.00
  C125_1                  1.00   0.00  0.32  0.00  0.68  0.00  0.00  0.00  0.45  0.00
  C125_2                  1.00   0.00  0.00  0.00  1.00  0.00  0.00  0.00  0.40  0.00
  C147                    1.00   0.36  0.04  0.00  0.60  0.00  0.00  0.00  0.67  0.00
  C147_2                  1.00   0.32  0.04  0.00  0.64  0.00  0.00  0.00  0.56  0.00
  C147_5                  1.00   0.40  0.23  0.00  0.37  0.00  0.00  0.00  0.99  0.00
  C15                     1.00   0.13  0.19  0.00  0.68  0.00  0.00  0.00  0.77  0.00
  C152                    1.00   0.63  0.37  0.00  0.00  0.00  0.00  0.00  0.00  0.00
  C152_1                  1.00   1.00  0.00  0.00  0.00  0.00  0.00  0.00  0.00  0.00
  C158                    1.00   0.00  0.13  0.00  0.87  0.00  0.00  0.00  0.19  0.00
  C159                    1.00   0.00  0.00  0.00  1.00  0.00  0.00  0.00  0.00  0.00
  C160                    1.00   0.00  0.00  0.00  1.00  0.00  0.00  0.00  0.00  0.00
  C167                    1.00   0.00  0.00  0.00  1.00  0.00  0.00  0.00  0.00  0.00
  C174                    1.00   1.00  0.00  0.00  0.00  0.00  0.00  0.00  0.00  0.00
  C18_1                   1.00   0.00  0.00  0.00  1.00  0.00  0.00  0.00  0.19  0.00
  C18_2                   1.00   0.00  0.00  0.00  1.00  0.00  0.00  0.00  0.00  0.00
  C2                      1.00   0.00  0.00  0.00  1.00  0.00  0.00  0.00  0.00  0.00
  C26                     1.00   0.00  0.70  0.00  0.30  0.00  0.00  0.00  1.00  0.00
  C27                     1.00   1.00  0.00  0.00  0.00  0.00  0.00  0.00  0.00  0.00
  C38                     1.00   0.28  0.09  0.00  0.63  0.00  0.00  0.00  0.51  0.00
  C47                     1.00   0.32  0.68  0.00  0.00  0.00  0.00  0.00  0.00  0.00
  C57                     1.00   0.00  0.00  0.00  1.00  0.00  0.00  0.00  0.00  0.00
  C62                     1.00   0.00  0.00  0.00  1.00  0.00  0.00  0.00  0.00  0.00
  C64                     1.00   0.28  0.72  0.00  0.00  0.00  0.00  0.00  1.00  0.00
  C64_2                   1.00   0.00  0.28  0.00  0.72  0.00  0.00  0.00  0.67  0.00
  C68_1                   1.00   0.00  0.00  0.00  1.00  0.00  0.00  0.00  0.00  0.00
  C68_2                   1.00   0.00  0.00  0.00  1.00  0.00  0.00  0.00  0.00  0.00
  C69                     1.00   0.00  0.00  0.00  1.00  0.00  0.00  0.00  0.00  0.00
  C70_1                   1.00   0.00  0.00  0.00  1.00  0.00  0.00  0.00  0.00  0.00
  C70_2                   1.00   0.00  0.00  0.00  1.00  0.00  0.00  0.00  0.00  0.00
  C78                     1.00   0.00  0.00  0.00  1.00  0.00  0.00  0.00  0.00  0.00
  C84                     1.00   0.00  0.00  0.00  1.00  0.00  0.00  0.00  0.10  0.00
  C85                     1.00   0.00  0.00  0.00  1.00  0.00  0.00  0.00  0.12  0.00
  C86                     1.00   0.00  0.00  0.00  1.00  0.00  0.00  0.00  0.00  0.00
  C90_1                   1.00   1.00  0.00  0.00  0.00  0.00  0.00  0.00  0.00  0.00
  C90_2                   1.00   0.53  0.47  0.00  0.00  0.00  0.00  0.00  0.00  0.00
  C96                     1.00   1.00  0.00  0.00  0.00  0.00  0.00  0.00  0.00  0.00
  
  
  *************************
  Conduit Surcharge Summary
  *************************
  
  ----------------------------------------------------------------------------
                                                           Hours        Hours 
                         --------- Hours Full --------   Above Full   Capacity
  Conduit                Both Ends  Upstream  Dnstream   Normal Flow   Limited
  ----------------------------------------------------------------------------
  C158                        0.01      0.01      2.02      0.01         0.01
  C26                         0.01      0.01      7.00      0.01         0.01
  C64_2                       0.01      0.01      1.48      0.01         0.01
  C68_1                       1.48      1.48      2.45      0.01         0.01
  C68_2                       2.45      2.45      3.95      0.01         0.01
  C69                         3.95      3.95      6.09      0.01         0.01
  

  Analysis begun on:  Sun May 17 06:17:44 2026
  Analysis ended on:  Sun May 17 06:17:45 2026
  Total elapsed time: 00:00:01